
  SciTegic12171313052D

 32 35  0  0  0  0            999 V2000
   10.0833  -12.4390    0.0000 C   0  0
   10.0963  -11.6198    0.0000 C   0  0
    9.3688  -12.8400    0.0000 O   0  0
   10.7884  -12.8594    0.0000 N   0  0
   10.0920   -9.1542    0.0000 N   0  0
   12.2256   -8.7422    0.0000 C   0  0
   13.6464  -11.1957    0.0000 C   0  0
   10.8057  -10.3801    0.0000 C   0  0
   13.6465   -7.9174    0.0000 C   0  0
   10.8085  -11.2064    0.0000 C   0  0
   12.2229  -11.1986    0.0000 C   0  0
   14.3575   -9.1536    0.0000 O   0  0
   14.3581  -11.6059    0.0000 N   0  0
   12.9336  -11.6122    0.0000 C   0  0
    9.3856  -11.2069    0.0000 C   0  0
   12.9346   -9.1530    0.0000 N   0  0
   12.2248   -7.9187    0.0000 C   0  0
    9.3868  -10.3837    0.0000 C   0  0
   12.9400  -12.4312    0.0000 C   0  0
   13.6474   -8.7408    0.0000 C   0  0
   12.9357   -9.9711    0.0000 C   0  0
   10.7984   -7.9249    0.0000 N   0  0
   10.8011   -8.7396    0.0000 C   0  0
   13.6436  -10.3770    0.0000 C   0  0
   12.2236  -10.3786    0.0000 C   0  0
   11.5141   -9.1544    0.0000 N   0  0
   11.5041   -7.5127    0.0000 C   0  0
   15.0722  -12.8329    0.0000 O   0  0
   10.0945   -9.9751    0.0000 C   0  0
   12.9330   -7.5061    0.0000 N   0  0
   13.6516  -12.8373    0.0000 C   0  0
   14.3606  -12.4267    0.0000 C   0  0
  1  4  1  0
  2  1  1  0
  1  3  2  0
 31 19  2  0
 20 12  2  0
 21 25  2  0
 27 22  2  0
 29 18  1  0
 32 31  1  0
 32 28  2  0
 22 23  1  0
 14  7  1  0
 17  6  2  0
 16 21  1  0
  9 30  2  0
  2 10  2  0
 13 32  1  0
 16 20  1  0
 24 21  1  0
 10  8  1  0
 11 14  2  0
 25 11  1  0
 18 15  2  0
  6 16  1  0
 23 26  2  0
  5 23  1  0
 15  2  1  0
  8 29  2  0
 17 27  1  0
 26  6  1  0
  7 24  2  0
  7 13  1  0
 29  5  1  0
 17 30  1  0
 20  9  1  0
M  END
> <chembl_id>
CHEMBL2437467

$$$$

  SciTegic11131809352D

 29 31  0  0  0  0            999 V2000
    7.5395   -1.3388    0.0000 C   0  0
    6.4990   -0.7409    0.0000 O   0  0
    5.2003   -1.4932    0.0000 C   0  0
    3.8990   -0.7455    0.0000 C   0  0
    2.6003   -1.4977    0.0000 O   0  0
    1.2990   -0.7500    0.0000 C   0  0
    1.2990    0.7500    0.0000 C   0  0
    0.0000    1.5000    0.0000 C   0  0
    0.0000    3.0000    0.0000 N   0  0
   -1.2991    3.7500    0.0000 C   0  0
   -2.5981    3.0000    0.0000 N   0  0
   -2.5981    1.5000    0.0000 C   0  0
   -3.8994    0.7522    0.0000 N   0  0
   -5.1981    1.5045    0.0000 C   0  0
   -6.4998    0.7590    0.0000 C   0  0
   -7.7962    1.5135    0.0000 C   0  0
   -7.7910    3.0135    0.0000 C   0  0
   -6.4894    3.7590    0.0000 C   0  0
   -5.1930    3.0045    0.0000 C   0  0
   -6.4842    5.2598    0.0000 C   0  0
   -6.4801    6.4598    0.0000 C   0  0
   -1.2990    0.7500    0.0000 C   0  0
   -1.2990   -0.7500    0.0000 C   0  0
    0.0000   -1.5000    0.0000 C   0  0
   -0.0031   -3.0008    0.0000 O   0  0
   -1.3039   -3.7494    0.0000 C   0  0
   -1.3070   -5.2502    0.0000 C   0  0
   -2.6078   -5.9988    0.0000 O   0  0
   -2.6103   -7.1988    0.0000 C   0  0
  1  2  1  0
  2  3  1  0
  3  4  1  0
  4  5  1  0
  5  6  1  0
  6  7  2  0
  7  8  1  0
  8  9  2  0
  9 10  1  0
 10 11  2  0
 11 12  1  0
 12 13  1  0
 13 14  1  0
 14 15  2  0
 15 16  1  0
 16 17  2  0
 17 18  1  0
 18 19  2  0
 19 14  1  0
 18 20  1  0
 20 21  3  0
 12 22  2  0
 22  8  1  0
 22 23  1  0
 23 24  2  0
 24  6  1  0
 24 25  1  0
 25 26  1  0
 26 27  1  0
 27 28  1  0
 28 29  1  0
M  END
> <chembl_id>
CHEMBL553

$$$$

  SciTegic12201616162D

 31 34  0  0  0  0            999 V2000
    3.8942   -1.4964    0.0000 N   0  0
    5.1929   -0.7441    0.0000 C   0  0
    5.1908    0.4559    0.0000 S   0  0
    6.4942   -1.4919    0.0000 N   0  0
    7.7928   -0.7396    0.0000 C   0  0
    9.0941   -1.4873    0.0000 C   0  0
   12.9858    0.7740    0.0000 O   0  0
   12.9909   -0.7260    0.0000 C   0  0
   11.6945   -1.4805    0.0000 C   0  0
   10.3928   -0.7351    0.0000 N   0  0
   10.3877    0.7650    0.0000 C   0  0
   11.6841    1.5195    0.0000 C   0  0
   -1.2964    1.4973    0.0000 N   0  0
   -2.6111    0.7486    0.0000 C   0  0
   -2.6111   -0.7486    0.0000 N   0  0
   -1.2964   -1.4973    0.0000 C   0  0
    0.0000   -0.7486    0.0000 C   0  0
    1.2964   -1.4973    0.0000 C   0  0
    2.5929   -0.7486    0.0000 C   0  0
    2.5929    0.7486    0.0000 C   0  0
    1.2964    1.4973    0.0000 C   0  0
    0.0000    0.7486    0.0000 C   0  0
   -1.2907   -2.9981    0.0000 N   0  0
   -2.5870   -3.7544    0.0000 C   0  0
   -2.5835   -5.2544    0.0000 C   0  0
   -3.8807   -6.0076    0.0000 C   0  0
   -5.1815   -5.2608    0.0000 C   0  0
   -5.1852   -3.7608    0.0000 C   0  0
   -3.8880   -3.0076    0.0000 C   0  0
   -6.2193   -5.8633    0.0000 F   0  0
   -3.8777   -7.2076    0.0000 Cl  0  0
  1  2  1  0
  2  3  2  0
  2  4  1  0
  5  6  1  0
  7  8  1  0
  8  9  1  0
  9 10  1  0
 10 11  1  0
 11 12  1  0
  7 12  1  0
  6 10  1  0
  4  5  1  0
 13 14  1  0
 14 15  2  0
 15 16  1  0
 16 17  2  0
 17 18  1  0
 18 19  2  0
 19 20  1  0
 20 21  2  0
 21 22  1  0
 13 22  2  0
 17 22  1  0
 24 25  1  0
 25 26  2  0
 26 27  1  0
 27 28  2  0
 28 29  1  0
 24 29  2  0
 27 30  1  0
 26 31  1  0
 23 24  1  0
 16 23  1  0
  1 19  1  0
M  END
> <chembl_id>
CHEMBL3814445

$$$$

  SciTegic09261414462D

 31 34  0  0  0  0            999 V2000
   20.0003  -23.3380    0.0000 N   0  0
   20.7099  -22.9286    0.0000 C   0  0
   20.7071  -22.1059    0.0000 N   0  0
   19.9985  -21.7007    0.0000 C   0  0
   19.2922  -22.9291    0.0000 C   0  0
   19.2934  -22.1125    0.0000 C   0  0
   18.5173  -21.8590    0.0000 C   0  0
   18.0363  -22.5189    0.0000 C   0  0
   18.5153  -23.1802    0.0000 S   0  0
   19.9947  -20.8835    0.0000 N   0  0
   20.7005  -20.4716    0.0000 C   0  0
   21.4080  -20.8818    0.0000 C   0  0
   22.1133  -20.4706    0.0000 C   0  0
   22.1100  -19.6525    0.0000 C   0  0
   21.3954  -19.2474    0.0000 C   0  0
   20.6930  -19.6609    0.0000 C   0  0
   17.2191  -22.5177    0.0000 N   0  0
   16.8115  -21.8094    0.0000 C   0  0
   15.9943  -21.8083    0.0000 C   0  0
   17.2211  -21.1023    0.0000 O   0  0
   22.8152  -19.2397    0.0000 F   0  0
   22.8227  -20.8763    0.0000 Cl  0  0
   15.5868  -21.1000    0.0000 N   0  0
   15.9999  -20.3958    0.0000 C   0  0
   15.5958  -19.6896    0.0000 C   0  0
   14.7783  -19.6842    0.0000 N   0  0
   14.3665  -20.3911    0.0000 C   0  0
   14.7722  -21.1035    0.0000 C   0  0
   14.3734  -18.9743    0.0000 C   0  0
   14.7857  -18.2688    0.0000 C   0  0
   14.3808  -17.5589    0.0000 O   0  0
  5  1  1  0
  1  2  2  0
  2  3  1  0
  3  4  2  0
  4  6  1  0
  5  6  2  0
  6  7  1  0
  7  8  2  0
  8  9  1  0
  9  5  1  0
  4 10  1  0
 10 11  1  0
 11 12  2  0
 12 13  1  0
 13 14  2  0
 14 15  1  0
 15 16  2  0
 16 11  1  0
  8 17  1  0
 17 18  1  0
 18 19  1  0
 18 20  2  0
 14 21  1  0
 13 22  1  0
 19 23  1  0
 23 24  1  0
 23 28  1  0
 24 25  1  0
 25 26  1  0
 26 27  1  0
 27 28  1  0
 26 29  1  0
 29 30  1  0
 30 31  1  0
M  END
> <chembl_id>
CHEMBL3233766

$$$$

  SciTegic01181116592D

 27 30  0  0  0  0            999 V2000
    8.5027   -1.1745    0.0000 N   0  0
    9.2197   -0.7608    0.0000 C   0  0
    9.2168    0.0704    0.0000 N   0  0
    8.5009    0.4799    0.0000 C   0  0
    8.4984    1.3056    0.0000 N   0  0
    7.7872   -0.7613    0.0000 C   0  0
    7.7839    0.0637    0.0000 C   0  0
    7.0037   -1.0194    0.0000 S   0  0
    6.5160   -0.3539    0.0000 C   0  0
    6.9981    0.3138    0.0000 C   0  0
    6.6627    1.0609    0.0000 C   0  0
    5.8442    1.1468    0.0000 C   0  0
    5.3622    0.4795    0.0000 N   0  0
    5.6986   -0.2744    0.0000 C   0  0
    9.2122    1.7205    0.0000 C   0  0  1  0  0  0
    9.9285    1.3098    0.0000 C   0  0
    9.2098    2.5462    0.0000 C   0  0
    9.9288    0.4868    0.0000 C   0  0
   10.6443    0.0762    0.0000 C   0  0
   11.3591    0.4912    0.0000 C   0  0
   11.3540    1.3212    0.0000 C   0  0
   10.6379    1.7281    0.0000 C   0  0
    4.5330    0.4796    0.0000 C   0  0
    4.1201   -0.2355    0.0000 O   0  0
    4.1202    1.1947    0.0000 C   0  0
    4.5331    1.9097    0.0000 C   0  0
    8.4935    2.9570    0.0000 C   0  0
 10 11  1  0
 11 12  1  0
 12 13  1  0
 13 14  1  0
  2  3  1  0
  5 15  1  0
 15 16  1  0
  7 10  1  0
 15 17  1  6
  9  8  1  0
 16 18  2  0
  8  6  1  0
 18 19  1  0
  9 10  2  0
 19 20  2  0
  3  4  2  0
 20 21  1  0
  4  7  1  0
 21 22  2  0
 22 16  1  0
  1  2  2  0
 13 23  1  0
  4  5  1  0
 23 24  2  0
  6  7  2  0
 23 25  1  0
  6  1  1  0
 25 26  2  0
  9 14  1  0
 17 27  1  0
M  END
> <chembl_id>
CHEMBL1272223

$$$$

  SciTegic04201616412D

 30 33  0  0  0  0            999 V2000
    0.0000    0.7486    0.0000 C   0  0
   -1.2964    1.4973    0.0000 C   0  0
    0.0000   -0.7486    0.0000 C   0  0
    1.2964    1.4973    0.0000 C   0  0
   -2.6111    0.7486    0.0000 N   0  0
    1.2964   -1.4973    0.0000 C   0  0
   -1.2907    2.9981    0.0000 N   0  0
    2.5929    0.7486    0.0000 C   0  0
    2.5929   -0.7486    0.0000 C   0  0
   -5.1852    3.7608    0.0000 C   0  0
   -1.2964   -1.4973    0.0000 N   0  0
   -3.8880    3.0076    0.0000 C   0  0
   -2.6111   -0.7486    0.0000 C   0  0
   -2.5870    3.7544    0.0000 C   0  0
   -5.1815    5.2608    0.0000 C   0  0
   -3.8807    6.0076    0.0000 C   0  0
   -2.5835    5.2544    0.0000 C   0  0
    3.8911   -1.5017    0.0000 O   0  0
   -3.8777    7.2076    0.0000 Cl  0  0
   -1.5428    5.8519    0.0000 F   0  0
    3.8894   -2.7017    0.0000 C   0  0
    3.8911    1.5017    0.0000 O   0  0
    3.8890    3.0026    0.0000 C   0  0
    5.1872    3.7556    0.0000 N   0  0
    2.8487    3.6008    0.0000 O   0  0
    5.1872    5.2557    0.0000 C   0  0
    6.4863    6.0057    0.0000 C   0  0
    7.7853    5.2557    0.0000 O   0  0
    7.7853    3.7557    0.0000 C   0  0
    6.4863    3.0057    0.0000 C   0  0
  2  1  1  0
  3  1  1  0
  4  1  2  0
  5  2  2  0
  6  3  2  0
  7  2  1  0
  8  4  1  0
  9  8  2  0
 10 12  1  0
 11  3  1  0
 12 14  2  0
 13 11  2  0
 14  7  1  0
 15 16  1  0
 16 17  2  0
 17 14  1  0
 18  9  1  0
  6  9  1  0
 13  5  1  0
 10 15  2  0
 16 19  1  0
 17 20  1  0
 18 21  1  0
  8 22  1  0
 22 23  1  0
 23 24  1  0
 23 25  2  0
 24 26  1  0
 24 30  1  0
 26 27  1  0
 27 28  1  0
 28 29  1  0
 29 30  1  0
M  END
> <chembl_id>
CHEMBL3623281

$$$$

  SciTegic12201615532D

 39 44  0  0  0  0            999 V2000
    1.5297   -7.7799    0.0000 C   0  0
    0.6223   -8.9753    0.0000 C   0  0
    1.0866  -10.0818    0.0000 C   0  0
    2.7202   -7.9307    0.0000 O   0  0
    0.9491   -6.3959    0.0000 N   0  0
    1.8565   -5.2005    0.0000 C   0  0
    1.2781   -3.8165    0.0000 C   0  0
    2.1852   -2.6281    0.0000 C   0  0
    3.6753   -2.8147    0.0000 C   0  0
    4.2537   -4.1987    0.0000 C   0  0
    3.3443   -5.3916    0.0000 C   0  0
    2.5889    0.0182    0.0000 C   0  0
    1.7138   -1.2033    0.0000 N   0  0
    0.2917   -0.7475    0.0000 C   0  0
    0.2917    0.7475    0.0000 C   0  0
    1.7138    1.2033    0.0000 N   0  0
   -1.0028    1.5132    0.0000 C   0  0
   -2.3155    0.7475    0.0000 C   0  0
   -2.3155   -0.7475    0.0000 C   0  0
   -1.0028   -1.5132    0.0000 C   0  0
    4.0896    0.0290    0.0000 C   0  0
    4.9234    1.2700    0.0000 C   0  0
    4.7453   -1.3220    0.0000 N   0  0
    6.4199    1.1671    0.0000 N   0  0
    7.0791   -0.1803    0.0000 C   0  0
    6.2418   -1.4248    0.0000 C   0  0
    7.2286   -5.1568    0.0000 N   0  0
    8.5770   -4.4998    0.0000 N   0  0
    8.3688   -3.0143    0.0000 C   0  0
    6.9013   -2.7729    0.0000 C   0  0
    6.1870   -4.0774    0.0000 C   0  0
    6.2216   -9.5371    0.0000 N   0  0
    7.6659   -9.1322    0.0000 C   0  0
    8.0374   -7.6789    0.0000 C   0  0
    6.9674   -6.6347    0.0000 C   0  0
    5.5202   -7.0355    0.0000 C   0  0
    5.1488   -8.4888    0.0000 C   0  0
    5.9245  -10.6998    0.0000 C   0  0
    4.3957    2.3477    0.0000 N   0  0
  1  2  1  0
  2  3  2  0
  1  4  2  0
  1  5  1  0
  6  7  1  0
  7  8  2  0
  8  9  1  0
  9 10  2  0
 10 11  1  0
  6 11  2  0
 12 13  1  0
 13 14  1  0
 14 15  1  0
 15 16  1  0
 12 16  2  0
 17 18  1  0
 18 19  2  0
 19 20  1  0
 14 20  2  0
 15 17  2  0
 21 22  1  0
 21 23  2  0
 22 24  2  0
 24 25  1  0
 25 26  2  0
 23 26  1  0
 27 28  1  0
 28 29  2  0
 29 30  1  0
 30 31  2  0
 27 31  1  0
 32 33  1  0
 33 34  1  0
 34 35  1  0
 35 36  1  0
 36 37  1  0
 32 37  1  0
 32 38  1  0
 27 35  1  0
 26 30  1  0
 22 39  1  0
 12 21  1  0
  8 13  1  0
  5  6  1  0
M  END
> <chembl_id>
CHEMBL3814825

$$$$

  SciTegic12091614152D

 30 32  0  0  0  0            999 V2000
    1.2990   -0.7500    0.0000 C   0  0
    1.2990    0.7500    0.0000 C   0  0
    0.0000    1.5000    0.0000 C   0  0
   -1.2990    0.7500    0.0000 C   0  0
   -1.2990   -0.7500    0.0000 C   0  0
    0.0000   -1.5000    0.0000 C   0  0
    2.5973   -1.5031    0.0000 N   0  0
   -0.0031    3.0008    0.0000 N   0  0
    1.2883   -5.2495    0.0000 C   0  0
    1.2935   -3.7495    0.0000 N   0  0
    2.5951   -3.0039    0.0000 C   0  0
    3.8915   -3.7585    0.0000 C   0  0
    3.8864   -5.2585    0.0000 C   0  0
    2.5847   -6.0040    0.0000 N   0  0
   -0.0125   -5.9981    0.0000 N   0  0
   -0.0155   -7.4989    0.0000 N   0  0
   -1.3163   -8.2475    0.0000 C   0  0
   -1.3194   -9.7484    0.0000 C   0  0
   -2.6184  -10.4985    0.0000 C   0  0
   -2.6184  -11.9985    0.0000 C   0  0
   -1.3193  -12.7484    0.0000 C   0  0
   -0.0203  -11.9984    0.0000 C   0  0
   -0.0203  -10.4984    0.0000 C   0  0
    4.9329   -3.1621    0.0000 Cl  0  0
   -1.3039    3.7494    0.0000 C   0  0
   -2.3421    3.1476    0.0000 O   0  0
   -1.3070    5.2502    0.0000 C   0  0
   -2.3471    5.8487    0.0000 C   0  0
   -2.3545   -7.6458    0.0000 C   0  0
   -1.3193  -13.9484    0.0000 C   0  0
  1  2  1  0
  2  3  2  0
  3  4  1  0
  4  5  2  0
  5  6  1  0
  1  6  2  0
  1  7  1  0
  3  8  1  0
  9 10  1  0
 10 11  2  0
 11 12  1  0
 12 13  2  0
 13 14  1  0
  9 14  2  0
 15 16  1  0
 17 18  1  0
 18 19  1  0
 19 20  2  0
 20 21  1  0
 21 22  2  0
 22 23  1  0
 18 23  2  0
 16 17  2  0
  9 15  1  0
 12 24  1  0
  7 11  1  0
  8 25  1  0
 25 26  2  0
 25 27  1  0
 27 28  2  0
 17 29  1  0
 21 30  1  0
M  END
> <chembl_id>
CHEMBL3741796

$$$$

  SciTegic12211613092D

 31 34  0  0  0  0            999 V2000
   -5.3425    5.2369    0.0000 N   0  0
   -5.2049    3.7560    0.0000 C   0  0  1  0  0  0
   -6.5563    3.1351    0.0000 C   0  0  2  0  0  0
   -7.5599    4.2500    0.0000 O   0  0
   -6.8097    5.5489    0.0000 C   0  0
   -3.9067    3.0027    0.0000 C   0  0
   -2.8664    3.6008    0.0000 O   0  0
   -3.9091    1.5019    0.0000 N   0  0
   -2.6111    0.7486    0.0000 C   0  0
   -2.6111   -0.7486    0.0000 C   0  0
   -1.2964   -1.4973    0.0000 C   0  0
   -1.2964    1.4973    0.0000 C   0  0
    0.0000    0.7486    0.0000 C   0  0
    0.0000   -0.7486    0.0000 C   0  0
    1.2964   -1.4973    0.0000 N   0  0
    2.5929   -0.7486    0.0000 C   0  0
    2.5929    0.7486    0.0000 N   0  0
    1.2964    1.4973    0.0000 C   0  0
   -3.9091   -1.5019    0.0000 O   0  0
    1.2995    2.9981    0.0000 N   0  0
    2.6003    3.7467    0.0000 C   0  0
    2.6056    5.2467    0.0000 C   0  0
    3.9072    5.9922    0.0000 C   0  0
    5.2037    5.2377    0.0000 C   0  0
    5.1985    3.7377    0.0000 C   0  0
    3.8969    2.9922    0.0000 C   0  0
   -7.2976    6.6452    0.0000 O   0  0
   -3.9072   -2.7019    0.0000 C   0  0
    6.2356    3.1342    0.0000 Cl  0  0
    6.2450    5.8341    0.0000 F   0  0
   -6.7990    1.9599    0.0000 C   0  0
  1  2  1  0
  2  3  1  0
  3  4  1  0
  4  5  1  0
  5  1  1  0
  2  6  1  6
  6  7  2  0
  6  8  1  0
  8  9  1  0
  9 10  2  0
 10 11  1  0
 11 14  2  0
 13 12  2  0
 12  9  1  0
 13 14  1  0
 14 15  1  0
 15 16  2  0
 16 17  1  0
 17 18  2  0
 18 13  1  0
 10 19  1  0
 18 20  1  0
 20 21  1  0
 21 22  2  0
 22 23  1  0
 23 24  2  0
 24 25  1  0
 25 26  2  0
 26 21  1  0
  5 27  2  0
 19 28  1  0
 25 29  1  0
 24 30  1  0
  3 31  1  1
M  END
> <chembl_id>
CHEMBL3818062

$$$$

  SciTegic12131613482D

 26 30  0  0  0  0            999 V2000
    0.8955    2.0810    0.0000 C   0  0
    1.7138    1.2033    0.0000 C   0  0
    2.8908    1.4370    0.0000 C   0  0
   -1.0028    1.5132    0.0000 N   0  0
   -2.3155    0.7475    0.0000 C   0  0
   -2.3155   -0.7475    0.0000 N   0  0
   -1.0028   -1.5132    0.0000 C   0  0
    0.2917    0.7475    0.0000 C   0  0
    0.2917   -0.7475    0.0000 C   0  0
    1.7138   -1.2033    0.0000 C   0  0
    2.5889    0.0182    0.0000 O   0  0
   -3.6168    1.4950    0.0000 C   0  0
   -4.9669    0.8708    0.0000 C   0  0
   -5.9732    1.9832    0.0000 N   0  0
   -5.2262    3.2840    0.0000 N   0  0
   -3.7582    2.9755    0.0000 C   0  0
   -0.9971   -3.0138    0.0000 N   0  0
   -2.2935   -3.7700    0.0000 C   0  0
   -4.6304   -4.2656    0.0000 N   0  0
   -3.6203   -3.1531    0.0000 N   0  0
   -3.8857   -5.5600    0.0000 C   0  0
   -2.4241   -5.2456    0.0000 C   0  0
   -1.4032   -6.3500    0.0000 C   0  0
   -1.8757   -7.7944    0.0000 N   0  0
   -3.3373   -8.1089    0.0000 C   0  0
   -4.3620   -6.9866    0.0000 C   0  0
  2  1  1  0
  3  2  1  0
  8  4  1  0
  4  5  2  0
  5  6  1  0
  6  7  2  0
  7  9  1  0
  8  9  2  0
  9 10  1  0
 10 11  1  0
 11  2  1  0
  2  8  1  0
  5 12  1  0
 12 13  2  0
 13 14  1  0
 14 15  1  0
 15 16  2  0
 16 12  1  0
  7 17  1  0
 17 18  1  0
 18 22  1  0
 21 19  1  0
 19 20  1  0
 20 18  2  0
 21 22  2  0
 22 23  1  0
 23 24  2  0
 24 25  1  0
 25 26  2  0
 26 21  1  0
M  END
> <chembl_id>
CHEMBL3760038

$$$$

  SciTegic05221516342D

 36 39  0  0  0  0            999 V2000
   21.0227   -3.8589    0.0000 C   0  0
   21.0215   -4.6785    0.0000 C   0  0
   21.7296   -5.0874    0.0000 N   0  0
   22.4392   -4.6780    0.0000 C   0  0
   22.4364   -3.8553    0.0000 N   0  0
   21.7278   -3.4501    0.0000 C   0  0
   21.7259   -2.6329    0.0000 C   0  0
   22.3855   -2.1506    0.0000 C   0  0
   22.1307   -1.3742    0.0000 N   0  0
   21.0634   -2.1546    0.0000 C   0  0
   21.3102   -1.3734    0.0000 C   0  0
   20.7602   -0.7724    0.0000 C   0  0
   19.9604   -0.9469    0.0000 C   0  0
   19.7136   -1.7281    0.0000 C   0  0
   20.2665   -2.3347    0.0000 C   0  0
   23.1476   -5.0855    0.0000 N   0  0
   23.8547   -4.6758    0.0000 C   0  0
   24.5597   -5.0837    0.0000 C   0  0
   25.2663   -4.6747    0.0000 C   0  0
   25.2654   -3.8566    0.0000 C   0  0
   24.5521   -3.4493    0.0000 C   0  0
   23.8484   -3.8606    0.0000 C   0  0
   24.5598   -5.9009    0.0000 O   0  0
   23.8521   -6.3095    0.0000 C   0  0
   24.5479   -2.6321    0.0000 N   0  0
   23.8382   -2.2271    0.0000 C   0  0
   23.8340   -1.4099    0.0000 C   0  0
   23.1325   -2.6393    0.0000 O   0  0
   24.5396   -0.9977    0.0000 C   0  0
   25.9719   -3.4459    0.0000 N   0  0
   26.6808   -3.8525    0.0000 C   0  0
   25.9696   -2.6288    0.0000 C   0  0
   26.6832   -4.6697    0.0000 C   0  0
   27.3921   -5.0762    0.0000 N   0  0
   27.3945   -5.8934    0.0000 C   0  0
   22.6103   -0.7126    0.0000 C   0  0
  1  2  2  0
  2  3  1  0
  3  4  2  0
  4  5  1  0
  5  6  2  0
  6  1  1  0
  7  8  2  0
  8  9  1  0
  9 11  1  0
 10  7  1  0
  6  7  1  0
 10 11  2  0
 10 15  1  0
 11 12  1  0
 12 13  2  0
 13 14  1  0
 14 15  2  0
  4 16  1  0
 16 17  1  0
 17 18  2  0
 18 19  1  0
 19 20  2  0
 20 21  1  0
 21 22  2  0
 22 17  1  0
 18 23  1  0
 23 24  1  0
 21 25  1  0
 25 26  1  0
 26 27  1  0
 26 28  2  0
 27 29  2  0
 20 30  1  0
 30 31  1  0
 30 32  1  0
 31 33  1  0
 33 34  1  0
 34 35  1  0
  9 36  1  0
M  END
> <chembl_id>
CHEMBL3353412

$$$$

  SciTegic08011209522D

 50 56  0  0  0  0            999 V2000
   -3.2848   -7.9833    0.0000 N   0  0
   -3.2859   -8.8107    0.0000 C   0  0
   -2.5711   -9.2235    0.0000 N   0  0
   -2.5729   -7.5705    0.0000 C   0  0
   -1.8575   -7.9797    0.0000 C   0  0
   -1.8541   -8.8127    0.0000 C   0  0
   -1.1349   -9.2240    0.0000 N   0  0
   -0.4145   -8.8068    0.0000 C   0  0
   -0.4180   -7.9738    0.0000 N   0  0
   -1.1418   -7.5579    0.0000 C   0  0
   -1.1309  -10.0456    0.0000 C   0  0
   -1.8459  -10.4594    0.0000 C   0  0
   -1.8440  -11.2837    0.0000 C   0  0
   -1.1279  -11.6951    0.0000 C   0  0
   -0.4122  -11.2762    0.0000 C   0  0
   -0.4176  -10.4533    0.0000 C   0  0
   -4.0007   -9.2226    0.0000 N   0  0
   -4.0014  -10.0476    0.0000 C   0  0
   -4.7163  -10.4580    0.0000 C   0  0
   -4.7173  -11.2822    0.0000 C   0  0
   -4.0026  -11.6961    0.0000 C   0  0
   -3.2854  -11.2797    0.0000 C   0  0
   -3.2880  -10.4569    0.0000 C   0  0
    0.3011   -9.2174    0.0000 O   0  0
    0.3048  -11.6842    0.0000 N   0  0
    0.3100  -12.5092    0.0000 C   0  0
    1.0270  -12.9172    0.0000 C   0  0
   -0.4019  -12.9261    0.0000 O   0  0
    1.0322  -13.7422    0.0000 C   0  0
   -4.0022  -12.5211    0.0000 N   0  0
    0.2952   -7.5590    0.0000 C   0  0
   -4.7191  -12.9307    0.0000 C   0  0
   -4.7206  -13.7521    0.0000 C   0  0
   -4.0077  -14.1681    0.0000 N   0  0
   -3.2917  -13.7564    0.0000 C   0  0
   -3.2885  -12.9288    0.0000 C   0  0
   -4.0104  -14.9931    0.0000 C   0  0
   -5.4300  -10.0441    0.0000 O   0  0
   -5.4284   -9.2191    0.0000 C   0  0
    1.0102   -7.9714    0.0000 C   0  0
    1.7229   -7.5574    0.0000 C   0  0
    1.7208   -6.7315    0.0000 C   0  0
    1.0000   -6.3214    0.0000 C   0  0
    0.2903   -6.7378    0.0000 C   0  0
    2.4297   -6.3155    0.0000 C   0  0
    3.1463   -6.7266    0.0000 C   0  0
    3.8585   -6.3116    0.0000 C   0  0
    3.8553   -5.4857    0.0000 C   0  0
    3.1340   -5.0766    0.0000 C   0  0
    2.4248   -5.4939    0.0000 C   0  0
  8 24  2  0
 11 12  2  0
 15 25  1  0
  2  3  1  0
 25 26  1  0
 12 13  1  0
 26 27  1  0
  3  6  2  0
 26 28  2  0
 13 14  2  0
 27 29  2  0
  1  2  2  0
 21 30  1  0
 14 15  1  0
  9 31  1  0
 30 32  1  0
  5  4  2  0
 15 16  2  0
 16 11  1  0
  7 11  1  0
  4  1  1  0
 30 36  1  0
 32 33  1  0
 33 34  1  0
 34 35  1  0
 35 36  1  0
  2 17  1  0
 34 37  1  0
  5 10  1  0
 19 38  1  0
 17 18  1  0
 38 39  1  0
  6  7  1  0
 31 40  2  0
 18 19  2  0
 40 41  1  0
  7  8  1  0
 41 42  2  0
 19 20  1  0
 42 43  1  0
  8  9  1  0
 43 44  2  0
 44 31  1  0
 20 21  2  0
  9 10  1  0
 45 46  2  0
 21 22  1  0
 46 47  1  0
  5  6  1  0
 47 48  2  0
 22 23  2  0
 48 49  1  0
 23 18  1  0
 49 50  2  0
 50 45  1  0
 42 45  1  0
M  END
> <chembl_id>
CHEMBL2029439

$$$$

  SciTegic04301217312D

 24 26  0  0  0  0            999 V2000
   -1.8058    1.4210    0.0000 N   0  0
   -1.8070    0.5936    0.0000 C   0  0
   -1.0920    0.1806    0.0000 N   0  0
   -0.3755    0.5941    0.0000 C   0  0
   -0.3784    1.4246    0.0000 C   0  0
   -1.0938    1.8338    0.0000 C   0  0
    0.3396    0.1826    0.0000 N   0  0
   -2.5219    0.1816    0.0000 N   0  0
   -3.2360    0.5947    0.0000 C   0  0
    1.0535    0.5963    0.0000 C   0  0
   -3.2308    1.4196    0.0000 C   0  0
   -3.9442    1.8327    0.0000 C   0  0
   -4.6600    1.4206    0.0000 C   0  0
   -4.6581    0.5913    0.0000 C   0  0
   -3.9441    0.1820    0.0000 C   0  0
    1.7654    0.1844    0.0000 C   0  0
    2.4788    0.5974    0.0000 C   0  0
    2.4780    1.4233    0.0000 C   0  0
    1.7577    1.8346    0.0000 C   0  0
    1.0473    1.4192    0.0000 C   0  0
   -3.9431    2.6578    0.0000 O   0  0
   -3.2280    3.0694    0.0000 C   0  0
    1.7535    2.6597    0.0000 O   0  0
    1.0369    3.0686    0.0000 C   0  0
 11 12  1  0
  6  1  1  0
 12 13  2  0
  1  2  2  0
 13 14  1  0
  4  7  1  0
 14 15  2  0
 15  9  1  0
  3  4  2  0
 10 16  2  0
  2  8  1  0
 16 17  1  0
 17 18  2  0
  8  9  1  0
 18 19  1  0
  4  5  1  0
 19 20  2  0
 20 10  1  0
  7 10  1  0
 12 21  1  0
  2  3  1  0
 21 22  1  0
  9 11  2  0
 19 23  1  0
  5  6  2  0
 23 24  1  0
M  END
> <chembl_id>
CHEMBL1947045

$$$$

  SciTegic01161211252D

 35 39  0  0  0  0            999 V2000
   14.4979    0.7897    0.0000 C   0  0
   14.4967   -0.0863    0.0000 C   0  0
   15.2550   -0.5235    0.0000 C   0  0
   16.0192   -0.0858    0.0000 C   0  0
   16.0164    0.7934    0.0000 C   0  0
   15.2532    1.2310    0.0000 C   0  0
    9.5518   -0.4954    0.0000 C   0  0
    9.5499   -1.3142    0.0000 N   0  0
   10.2552   -1.7264    0.0000 C   0  0
   10.9725   -1.3116    0.0000 C   0  0
   10.9727   -0.4902    0.0000 C   0  0
   10.2524   -0.0838    0.0000 C   0  0
   11.6857   -1.7232    0.0000 C   0  0
   11.6855   -2.5535    0.0000 C   0  0
   12.3901   -2.9590    0.0000 N   0  0
   12.3839   -1.3119    0.0000 C   0  0
   13.1019   -1.7159    0.0000 C   0  0
   13.1037   -2.5450    0.0000 C   0  0
   13.8090   -2.9568    0.0000 N   0  0
   14.5196   -2.5422    0.0000 C   0  0
   14.5178   -1.7172    0.0000 C   0  0
   13.8007   -1.3069    0.0000 N   0  0
    8.8376   -0.0870    0.0000 N   0  0
    8.8344    0.7341    0.0000 C   0  0
    8.1324    1.1424    0.0000 C   0  0
    7.4213    0.7354    0.0000 N   0  0
    7.4206   -0.0844    0.0000 C   0  0
    8.1310   -0.4971    0.0000 C   0  0
    6.7125    1.1466    0.0000 C   0  0
   13.7977   -0.4949    0.0000 C   0  0
   13.7397    1.2306    0.0000 C   0  0
   13.7395    2.1042    0.0000 F   0  0
   12.9818    0.7894    0.0000 F   0  0
   12.9787    1.6675    0.0000 F   0  0
   16.7779   -0.5215    0.0000 Cl  0  0
 10 13  1  0
 13 14  1  0
 14 15  2  0
 15 18  1  0
 17 16  1  0
 16 13  2  0
 17 18  2  0
 17 22  1  0
 18 19  1  0
 19 20  1  0
 20 21  1  0
 21 22  1  0
  7 23  1  0
 23 24  1  0
  4  5  1  0
  2  3  1  0
  5  6  2  0
  6  1  1  0
  1  2  2  0
 23 28  1  0
 24 25  1  0
 25 26  1  0
 26 27  1  0
 27 28  1  0
  3  4  2  0
 26 29  1  0
  7  8  1  0
 22 30  1  0
 30  2  1  0
  8  9  2  0
  1 31  1  0
  9 10  1  0
 31 32  1  0
 10 11  2  0
 31 33  1  0
 11 12  1  0
 31 34  1  0
 12  7  2  0
  4 35  1  0
M  END
> <chembl_id>
CHEMBL1164180

$$$$

  SciTegic04201616412D

 32 35  0  0  0  0            999 V2000
    0.0000    0.7486    0.0000 C   0  0
   -1.2964    1.4973    0.0000 C   0  0
    0.0000   -0.7486    0.0000 C   0  0
    1.2964    1.4973    0.0000 C   0  0
   -2.6111    0.7486    0.0000 N   0  0
    1.2964   -1.4973    0.0000 C   0  0
   -1.2907    2.9981    0.0000 N   0  0
    2.5929    0.7486    0.0000 C   0  0
    2.5929   -0.7486    0.0000 C   0  0
   -5.1852    3.7608    0.0000 C   0  0
   -1.2964   -1.4973    0.0000 N   0  0
   -3.8880    3.0076    0.0000 C   0  0
   -2.6111   -0.7486    0.0000 C   0  0
   -2.5870    3.7544    0.0000 C   0  0
   -5.1815    5.2608    0.0000 C   0  0
   -3.8807    6.0076    0.0000 C   0  0
   -2.5835    5.2544    0.0000 C   0  0
    3.8911   -1.5017    0.0000 O   0  0
   -3.8777    7.2076    0.0000 Cl  0  0
   -1.5428    5.8519    0.0000 F   0  0
    3.8894   -2.7017    0.0000 C   0  0
    3.8911    1.5017    0.0000 O   0  0
    3.8890    3.0026    0.0000 C   0  0
    5.1872    3.7556    0.0000 N   0  0
    2.8487    3.6008    0.0000 O   0  0
    5.3250    5.2365    0.0000 C   0  0
    6.7923    5.5484    0.0000 C   0  0  2  0  0  0
    7.5423    4.2493    0.0000 C   0  0
    6.5386    3.1346    0.0000 C   0  0
    7.4045    6.9158    0.0000 N   0  0
    8.5981    7.0395    0.0000 C   0  0
    6.7009    7.8879    0.0000 C   0  0
  2  1  1  0
  3  1  1  0
  4  1  2  0
  5  2  2  0
  6  3  2  0
  7  2  1  0
  8  4  1  0
  9  8  2  0
 10 12  1  0
 11  3  1  0
 12 14  2  0
 13 11  2  0
 14  7  1  0
 15 16  1  0
 16 17  2  0
 17 14  1  0
 18  9  1  0
  6  9  1  0
 13  5  1  0
 10 15  2  0
 16 19  1  0
 17 20  1  0
 18 21  1  0
  8 22  1  0
 22 23  1  0
 23 24  1  0
 23 25  2  0
 24 26  1  0
 26 27  1  0
 27 28  1  0
 28 29  1  0
 29 24  1  0
 27 30  1  1
 30 31  1  0
 30 32  1  0
M  END
> <chembl_id>
CHEMBL3623285

$$$$

  SciTegic05061409512D

 26 28  0  0  0  0            999 V2000
   11.6014  -10.7789    0.0000 N   0  0
   12.3110  -10.3694    0.0000 C   0  0
   12.3082   -9.5468    0.0000 N   0  0
   11.5996   -9.1415    0.0000 C   0  0
   10.8933  -10.3699    0.0000 C   0  0
   10.8956   -9.5480    0.0000 C   0  0
   10.1861   -9.1369    0.0000 C   0  0
    9.4738   -9.5465    0.0000 C   0  0
    9.4755  -10.3715    0.0000 C   0  0
   10.1856  -10.7790    0.0000 C   0  0
   11.5979   -8.3243    0.0000 N   0  0
    8.7661   -9.1380    0.0000 N   0  0
    8.0584   -9.5468    0.0000 C   0  0
    7.3506   -9.1383    0.0000 C   0  0
    8.0586  -10.3639    0.0000 O   0  0
    6.6430   -9.5470    0.0000 C   0  0
   12.3047   -7.9142    0.0000 C   0  0
   13.0137   -8.3264    0.0000 C   0  0
   13.7200   -7.9170    0.0000 C   0  0
   13.7188   -7.0990    0.0000 C   0  0
   13.0052   -6.6920    0.0000 C   0  0
   12.3018   -7.1038    0.0000 C   0  0
   11.5921   -6.6986    0.0000 O   0  0
   11.5882   -5.8814    0.0000 C   0  0
   14.4251   -6.6880    0.0000 O   0  0
   15.1342   -7.0941    0.0000 C   0  0
  5  1  1  0
  1  2  2  0
  2  3  1  0
  3  4  2  0
  4  6  1  0
  5  6  1  0
  6  7  2  0
  7  8  1  0
  8  9  2  0
  9 10  1  0
 10  5  2  0
  4 11  1  0
  8 12  1  0
 12 13  1  0
 13 14  1  0
 13 15  2  0
 14 16  2  0
 11 17  1  0
 17 18  2  0
 18 19  1  0
 19 20  2  0
 20 21  1  0
 21 22  2  0
 22 17  1  0
 22 23  1  0
 23 24  1  0
 20 25  1  0
 25 26  1  0
M  END
> <chembl_id>
CHEMBL3133906

$$$$

  SciTegic12121614122D

 44 49  0  0  0  0            999 V2000
   -1.2913    7.5063    0.0000 C   0  0
   -2.5882    8.2616    0.0000 C   0  0
   -2.5845    9.4615    0.0000 C   0  0
   -0.2500    8.1028    0.0000 O   0  0
   -1.2959    6.0055    0.0000 N   0  0
    0.0011    5.2503    0.0000 C   0  0
   -0.0014    3.7503    0.0000 C   0  0
    1.2964    2.9980    0.0000 C   0  0
    2.5967    3.7460    0.0000 C   0  0
    2.5992    5.2460    0.0000 C   0  0
    1.3014    5.9981    0.0000 C   0  0
   -2.6111    0.7486    0.0000 C   0  0
   -1.2964    1.4973    0.0000 N   0  0
    0.0000    0.7486    0.0000 C   0  0
    0.0000   -0.7486    0.0000 C   0  0
   -1.2964   -1.4973    0.0000 C   0  0
   -2.6111   -0.7486    0.0000 N   0  0
    1.2964   -1.4973    0.0000 C   0  0
    2.5929   -0.7486    0.0000 C   0  0
    2.5929    0.7486    0.0000 C   0  0
    1.2964    1.4973    0.0000 N   0  0
    1.2964   -2.9980    0.0000 C   0  0
   -0.0014   -3.7503    0.0000 C   0  0
    0.0011   -5.2503    0.0000 C   0  0
    1.3014   -5.9981    0.0000 C   0  0
    2.5992   -5.2460    0.0000 C   0  0
    2.5967   -3.7460    0.0000 C   0  0
    3.6321    1.3486    0.0000 O   0  0
   -3.9122    1.4966    0.0000 N   0  0
   -5.2109    0.7445    0.0000 C   0  0
   -6.5125    1.4901    0.0000 C   0  0
   -7.8091    0.7359    0.0000 C   0  0
   -7.8042   -0.7641    0.0000 C   0  0
   -6.5027   -1.5098    0.0000 C   0  0
   -5.2061   -0.7556    0.0000 C   0  0
   -9.1014   -1.5188    0.0000 N   0  0
  -10.4041   -0.7752    0.0000 C   0  0
  -11.6995   -1.5315    0.0000 C   0  0
  -11.6922   -3.0315    0.0000 N   0  0
  -10.3895   -3.7751    0.0000 C   0  0
   -9.0942   -3.0188    0.0000 C   0  0
  -12.7285   -3.6365    0.0000 C   0  0
   -6.5206    2.9910    0.0000 O   0  0
   -7.5627    3.5860    0.0000 C   0  0
  1  2  1  0
  2  3  2  0
  1  4  2  0
  1  5  1  0
  6  7  1  0
  7  8  2  0
  8  9  1  0
  9 10  2  0
 10 11  1  0
  6 11  2  0
 12 13  1  0
 13 14  2  0
 14 15  1  0
 15 16  2  0
 16 17  1  0
 12 17  2  0
 18 19  2  0
 19 20  1  0
 20 21  1  0
 14 21  1  0
 15 18  1  0
 22 23  1  0
 23 24  2  0
 24 25  1  0
 25 26  2  0
 26 27  1  0
 22 27  2  0
 18 22  1  0
 20 28  2  0
 30 31  1  0
 31 32  2  0
 32 33  1  0
 33 34  2  0
 34 35  1  0
 30 35  2  0
 36 37  1  0
 37 38  1  0
 38 39  1  0
 39 40  1  0
 40 41  1  0
 36 41  1  0
 39 42  1  0
 33 36  1  0
 43 44  1  0
 31 43  1  0
 29 30  1  0
 12 29  1  0
  8 21  1  0
  5  6  1  0
M  END
> <chembl_id>
CHEMBL3753305

$$$$

  SciTegic12091611192D

 30 34  0  0  0  0            999 V2000
   -3.6217    1.4865    0.0000 N   0  0
   -7.5133    0.6990    0.0000 C   0  0
   -6.2219    1.4621    0.0000 N   0  0
   -4.9153    0.7255    0.0000 C   0  0
   -4.9001   -0.7745    0.0000 C   0  0
   -6.1914   -1.5377    0.0000 C   0  0
   -7.4980   -0.8010    0.0000 N   0  0
   -8.8205    1.4361    0.0000 N   0  0
   -8.8383    2.9360    0.0000 C   0  0
  -10.1461    3.6707    0.0000 C   0  0
  -11.4362    2.9055    0.0000 C   0  0
  -11.4185    1.4056    0.0000 C   0  0
  -10.1108    0.6709    0.0000 C   0  0
  -12.7462    3.6378    0.0000 O   0  0
  -13.7774    3.0242    0.0000 C   0  0
   -1.0028   -1.5132    0.0000 C   0  0
    0.2917   -0.7475    0.0000 C   0  0
    0.2917    0.7475    0.0000 C   0  0
   -1.0028    1.5132    0.0000 C   0  0
   -2.3155    0.7475    0.0000 C   0  0
   -2.3155   -0.7475    0.0000 N   0  0
    2.5889    0.0182    0.0000 C   0  0
    1.7138   -1.2033    0.0000 N   0  0
    1.7138    1.2033    0.0000 N   0  0
    2.1749    2.6315    0.0000 C   0  0
    1.2517    3.8078    0.0000 C   0  0
    1.8114    5.1995    0.0000 C   0  0
    3.2965    5.4106    0.0000 O   0  0
    4.2218    4.2301    0.0000 C   0  0
    3.6621    2.8384    0.0000 C   0  0
  2  3  1  0
  3  4  2  0
  4  5  1  0
  5  6  2  0
  6  7  1  0
  2  7  2  0
  8  9  1  0
  9 10  1  0
 10 11  1  0
 11 12  1  0
 12 13  1  0
  8 13  1  0
 14 15  1  0
 11 14  1  0
  2  8  1  0
  1  4  1  0
 16 17  1  0
 17 18  2  0
 18 19  1  0
 19 20  2  0
 20 21  1  0
 16 21  2  0
 22 23  2  0
 22 24  1  0
 17 23  1  0
 18 24  1  0
  1 20  1  0
 24 25  1  0
 25 26  1  0
 25 30  1  0
 26 27  1  0
 27 28  1  0
 28 29  1  0
 29 30  1  0
M  END
> <chembl_id>
CHEMBL3735725

$$$$

  SciTegic05221516342D

 30 32  0  0  0  0            999 V2000
    2.9991  -15.2872    0.0000 C   0  0
    2.9979  -16.1068    0.0000 N   0  0
    3.7060  -16.5157    0.0000 C   0  0
    4.4156  -16.1063    0.0000 N   0  0
    4.4128  -15.2836    0.0000 C   0  0
    3.7042  -14.8784    0.0000 C   0  0
    5.1190  -14.8724    0.0000 N   0  0
    5.8282  -15.2783    0.0000 C   0  0
    5.8280  -16.0931    0.0000 C   0  0
    6.5364  -16.4990    0.0000 C   0  0
    7.2435  -16.0877    0.0000 C   0  0
    7.2378  -15.2663    0.0000 C   0  0
    6.5288  -14.8641    0.0000 N   0  0
    6.5391  -17.3162    0.0000 N   0  0
    7.2481  -17.7224    0.0000 C   0  0
    7.2508  -18.5396    0.0000 C   0  0
    7.9545  -17.3115    0.0000 O   0  0
    6.5426  -18.9493    0.0000 C   0  0
    6.5449  -19.7657    0.0000 C   0  0
    7.2545  -20.1728    0.0000 C   0  0
    7.9632  -19.7575    0.0000 C   0  0
    7.9574  -18.9424    0.0000 C   0  0
    5.8341  -18.5420    0.0000 Cl  0  0
    8.6625  -18.5294    0.0000 Cl  0  0
    2.2913  -14.8788    0.0000 C   0  0
    3.7058  -17.3329    0.0000 N   0  0
    4.4134  -17.7417    0.0000 C   0  0  2  0  0  0
    4.4132  -18.5589    0.0000 C   0  0
    3.7054  -18.9673    0.0000 O   0  0
    5.1212  -17.3333    0.0000 C   0  0
  1  2  2  0
  2  3  1  0
  3  4  2  0
  4  5  1  0
  5  6  2  0
  6  1  1  0
  5  7  1  0
  7  8  1  0
  8  9  2  0
  9 10  1  0
 10 11  2  0
 11 12  1  0
 12 13  2  0
 13  8  1  0
 10 14  1  0
 14 15  1  0
 15 16  1  0
 15 17  2  0
 16 18  2  0
 18 19  1  0
 19 20  2  0
 20 21  1  0
 21 22  2  0
 22 16  1  0
 18 23  1  0
 22 24  1  0
  1 25  1  0
  3 26  1  0
 26 27  1  0
 27 28  1  0
 28 29  1  0
 27 30  1  1
M  END
> <chembl_id>
CHEMBL3354183

$$$$

  SciTegic12161615052D

 30 33  0  0  0  0            999 V2000
    1.2990   -0.7500    0.0000 C   0  0
    1.2990    0.7500    0.0000 C   0  0
    0.0000    1.5000    0.0000 C   0  0
   -1.2990    0.7500    0.0000 C   0  0
   -1.2990   -0.7500    0.0000 C   0  0
    0.0000   -1.5000    0.0000 N   0  0
    2.5972    1.5031    0.0000 C   0  0
    3.6375    0.9049    0.0000 O   0  0
    2.5951    3.0039    0.0000 N   0  0
    2.3383   -1.3500    0.0000 O   0  0
    3.8933    3.7570    0.0000 C   0  0
    3.8933    5.2571    0.0000 C   0  0
    5.1924    6.0071    0.0000 C   0  0
    6.4914    5.2571    0.0000 C   0  0
    6.4915    3.7571    0.0000 C   0  0
    5.1925    3.0071    0.0000 C   0  0
    7.7911    6.0075    0.0000 N   0  0
    7.7935    7.5076    0.0000 C   0  0
    9.0937    8.2556    0.0000 C   0  0
   10.3916    7.5036    0.0000 N   0  0
   10.3893    6.0036    0.0000 C   0  0
    9.0891    5.2556    0.0000 C   0  0
   11.4318    8.1019    0.0000 C   0  0
   -0.0031    3.0008    0.0000 N   0  0
   -1.3039    3.7494    0.0000 C   0  0
   -1.3092    5.2494    0.0000 C   0  0
   -2.6108    5.9949    0.0000 C   0  0
   -3.9073    5.2404    0.0000 C   0  0
   -3.9021    3.7404    0.0000 C   0  0
   -2.6005    2.9949    0.0000 C   0  0
  1  2  1  0
  2  3  2  0
  3  4  1  0
  4  5  2  0
  5  6  1  0
  1  6  1  0
  7  8  2  0
  7  9  1  0
  2  7  1  0
  1 10  2  0
 11 12  1  0
 12 13  2  0
 13 14  1  0
 14 15  2  0
 15 16  1  0
 11 16  2  0
 17 18  1  0
 18 19  1  0
 19 20  1  0
 20 21  1  0
 21 22  1  0
 17 22  1  0
 20 23  1  0
 14 17  1  0
  9 11  1  0
  3 24  1  0
 24 25  1  0
 25 26  2  0
 26 27  1  0
 27 28  2  0
 28 29  1  0
 29 30  2  0
 30 25  1  0
M  END
> <chembl_id>
CHEMBL3780484

$$$$

  SciTegic12201611502D

 26 29  0  0  0  0            999 V2000
   -2.1332   -2.2973    0.0000 N   0  0
   -3.4277   -1.5498    0.0000 C   0  0
   -3.4277    0.0000    0.0000 N   0  0
   -2.1332    0.6928    0.0000 C   0  0
   -0.8205    0.0000    0.0000 C   0  0
    0.4558    0.6928    0.0000 C   0  0
    1.7503    0.0000    0.0000 C   0  0
    1.7503   -1.5498    0.0000 C   0  0
    0.4558   -2.2973    0.0000 C   0  0
   -0.8205   -1.5498    0.0000 C   0  0
    0.4558    2.1879    0.0000 O   0  0
    3.0631    0.6928    0.0000 O   0  0
    3.0631    2.1879    0.0000 C   0  0
    1.7503    2.9537    0.0000 C   0  0
   -2.1454    2.1947    0.0000 N   0  0
    3.0410   -2.3153    0.0000 O   0  0
    3.0239   -3.8160    0.0000 C   0  0
    4.0559   -4.4284    0.0000 C   0  0
   -3.4508    2.9353    0.0000 C   0  0
   -3.4653    4.4352    0.0000 C   0  0
   -4.7714    5.1728    0.0000 C   0  0
   -6.0632    4.4104    0.0000 C   0  0
   -6.0489    2.9104    0.0000 C   0  0
   -4.7427    2.1729    0.0000 C   0  0
   -7.1082    5.0004    0.0000 F   0  0
   -4.7829    6.3727    0.0000 Cl  0  0
  1  2  1  0
  2  3  2  0
  3  4  1  0
  4  5  2  0
  5  6  1  0
  6  7  2  0
  7  8  1  0
  8  9  2  0
  9 10  1  0
  1 10  2  0
  5 10  1  0
 12 13  1  0
 13 14  1  0
 11 14  1  0
  6 11  1  0
  7 12  1  0
  4 15  1  0
 17 18  1  0
 16 17  1  0
  8 16  1  0
 19 20  1  0
 20 21  2  0
 21 22  1  0
 22 23  2  0
 23 24  1  0
 19 24  2  0
 22 25  1  0
 21 26  1  0
 15 19  1  0
M  END
> <chembl_id>
CHEMBL3806248

$$$$

  SciTegic05221516342D

 38 42  0  0  0  0            999 V2000
   34.0275  -15.9201    0.0000 C   0  0
   33.3184  -16.3287    0.0000 C   0  0
   33.3184  -17.1459    0.0000 C   0  0
   32.6093  -17.5544    0.0000 C   0  0
   34.0275  -15.1029    0.0000 O   0  0
   34.7325  -16.3287    0.0000 N   0  0
   30.4903  -16.3287    0.0000 O   0  0
   31.1953  -15.9201    0.0000 C   0  0
   31.9043  -16.3287    0.0000 C   0  0
   31.9043  -17.1459    0.0000 N   0  0
   31.1953  -17.5544    0.0000 C   0  0
   30.4903  -17.1459    0.0000 C   0  0
   32.6093  -15.9201    0.0000 F   0  0
   37.5647  -14.6943    0.0000 N   0  0
   38.2738  -15.1029    0.0000 C   0  0
   38.2738  -15.9201    0.0000 N   0  0
   37.5647  -16.3287    0.0000 C   0  0
   36.8597  -15.9201    0.0000 C   0  0
   36.1506  -16.3287    0.0000 C   0  0
   35.4415  -15.9201    0.0000 C   0  0
   35.4415  -15.1029    0.0000 C   0  0
   36.1506  -14.6943    0.0000 C   0  0
   36.8597  -15.1029    0.0000 C   0  0
   34.7325  -14.6943    0.0000 O   0  0
   35.1411  -12.6197    0.0000 O   0  0
   35.3957  -13.3969    0.0000 C   0  0
   34.7325  -13.8771    0.0000 C   0  0  2  0  0  0
   34.0733  -13.3969    0.0000 C   0  0
   34.3239  -12.6197    0.0000 C   0  0
   37.5647  -17.1459    0.0000 N   0  0
   38.2738  -17.5544    0.0000 C   0  0
   38.9787  -17.1459    0.0000 C   0  0
   39.6878  -17.5544    0.0000 C   0  0
   39.6878  -18.3716    0.0000 C   0  0
   38.9787  -18.7802    0.0000 C   0  0
   38.2738  -18.3716    0.0000 C   0  0
   40.3969  -18.7802    0.0000 F   0  0
   40.3969  -17.1459    0.0000 Cl  0  0
  1  2  1  0
  2  3  2  0
  3  4  1  0
  1  5  2  0
  1  6  1  0
  7  8  1  0
  8  9  1  0
  9 10  1  0
 10 11  1  0
 11 12  1  0
  7 12  1  0
  4 10  1  0
  2 13  1  0
 14 15  1  0
 15 16  2  0
 16 17  1  0
 17 18  2  0
 18 19  1  0
 19 20  2  0
 20 21  1  0
 21 22  2  0
 22 23  1  0
 14 23  2  0
 18 23  1  0
 25 26  1  0
 26 27  1  0
 27 28  1  0
 28 29  1  0
 25 29  1  0
 27 24  1  1
 21 24  1  0
 31 32  1  0
 32 33  2  0
 33 34  1  0
 34 35  2  0
 35 36  1  0
 31 36  2  0
 34 37  1  0
 33 38  1  0
 30 31  1  0
 17 30  1  0
  6 20  1  0
M  END
> <chembl_id>
CHEMBL3357639

$$$$

  SciTegic11131810222D

 40 43  0  0  0  0            999 V2000
    3.6387   -0.8963    0.0000 C   0  0
    2.6003   -1.4977    0.0000 O   0  0
    1.2990   -0.7500    0.0000 C   0  0
    1.2990    0.7500    0.0000 C   0  0
    0.0000    1.5000    0.0000 C   0  0
   -1.2990    0.7500    0.0000 C   0  0
   -1.2990   -0.7500    0.0000 C   0  0
    0.0000   -1.5000    0.0000 C   0  0
   -0.0031   -3.0008    0.0000 N   0  0
   -1.3039   -3.7494    0.0000 C   0  0
   -1.3092   -5.2494    0.0000 N   0  0
   -2.6108   -5.9949    0.0000 C   0  0
   -3.9072   -5.2404    0.0000 C   0  0
   -3.9020   -3.7404    0.0000 C   0  0
   -5.1977   -2.9829    0.0000 N   0  0
   -5.1903   -1.4821    0.0000 C   0  0
   -6.4841   -0.7230    0.0000 C   0  0
   -6.4738    0.7769    0.0000 C   0  0
   -5.1696    1.5179    0.0000 C   0  0
   -3.8758    0.7590    0.0000 C   0  0
   -2.5693    1.4977    0.0000 N   0  0
   -1.2759    0.7365    0.0000 C   0  0
   -1.2862   -0.4635    0.0000 O   0  0
    0.0306    1.4752    0.0000 C   0  0
    1.0648    0.8666    0.0000 C   0  0
   -3.8861   -0.7410    0.0000 C   0  0
   -2.6004   -2.9949    0.0000 N   0  0
   -5.2096   -5.9864    0.0000 C   0  0
   -5.2145   -7.1863    0.0000 F   0  0
   -6.2465   -5.3824    0.0000 F   0  0
   -6.2512   -6.5823    0.0000 F   0  0
    0.0000    3.0008    0.0000 N   0  0
    1.2978    3.7529    0.0000 C   0  0
    1.2954    5.2529    0.0000 C   0  0
   -0.0048    6.0009    0.0000 N   0  0
   -1.3026    5.2488    0.0000 C   0  0
   -1.3002    3.7488    0.0000 C   0  0
   -0.0103    7.5017    0.0000 C   0  0
   -1.0513    8.0986    0.0000 O   0  0
    1.0270    8.1052    0.0000 C   0  0
  1  2  1  0
  2  3  1  0
  3  4  2  0
  4  5  1  0
  5  6  2  0
  6  7  1  0
  7  8  2  0
  8  3  1  0
  8  9  1  0
  9 10  1  0
 10 11  2  0
 11 12  1  0
 12 13  2  0
 13 14  1  0
 14 15  1  0
 15 16  1  0
 16 17  2  0
 17 18  1  0
 18 19  2  0
 19 20  1  0
 20 21  1  0
 21 22  1  0
 22 23  2  0
 22 24  1  0
 24 25  2  0
 20 26  2  0
 26 16  1  0
 14 27  2  0
 27 10  1  0
 13 28  1  0
 28 29  1  0
 28 30  1  0
 28 31  1  0
  5 32  1  0
 32 33  1  0
 33 34  1  0
 34 35  1  0
 35 36  1  0
 36 37  1  0
 37 32  1  0
 35 38  1  0
 38 39  2  0
 38 40  1  0
M  END
> <chembl_id>
CHEMBL3545308

$$$$

  SciTegic12171313022D

 34 37  0  0  0  0            999 V2000
    9.3325  -12.3485    0.0000 C   0  0
    8.6328  -14.4096    0.0000 C   0  0
    4.3691  -13.5902    0.0000 C   0  0
    3.6093  -12.0510    0.0000 C   0  0
    6.5062  -14.8203    0.0000 N   0  0
    8.6158  -11.1228    0.0000 O   0  0
    5.4773  -11.0930    0.0000 N   0  0
   11.4614  -11.1083    0.0000 C   0  0
    7.2159  -14.4107    0.0000 C   0  0
    4.3680  -14.4135    0.0000 C   0  0
   10.7533  -12.3412    0.0000 C   0  0
    5.0769  -13.1774    0.0000 C   0  0
    5.0787  -14.8223    0.0000 N   0  0
    4.4038  -11.8768    0.0000 C   0  0
   11.4656  -11.9292    0.0000 N   0  0
    4.1094  -10.4952    0.0000 C   0  0
    7.9237  -15.6394    0.0000 O   0  0
    8.6320  -13.5879    0.0000 C   0  0
    7.2134  -16.0520    0.0000 C   0  0
    5.7345  -11.8727    0.0000 C   0  0
    3.0609  -11.4469    0.0000 C   0  0
    7.9236  -14.8185    0.0000 C   0  0
    7.9159  -13.1767    0.0000 C   0  0
    4.6560  -11.0987    0.0000 N   0  0
   12.1781  -12.3338    0.0000 C   0  0
   10.0408  -11.9364    0.0000 C   0  0
    3.3104  -10.6645    0.0000 C   0  0
    8.6200  -11.9437    0.0000 C   0  0
    5.7924  -13.5866    0.0000 N   0  0
    5.0686  -12.3555    0.0000 C   0  0
    7.2097  -13.5919    0.0000 C   0  0
    7.9118  -12.3557    0.0000 N   0  0
    5.7952  -14.4130    0.0000 C   0  0
    3.6608  -13.1827    0.0000 Cl  0  0
 15 25  1  0
 15  8  1  0
 24 16  1  0
 23 31  2  0
 21  4  2  0
 18 23  1  0
 12  3  1  0
  7 24  1  0
 26 11  1  0
 32 28  1  0
 23 32  1  0
  9 22  2  0
  4 14  1  0
 27 21  1  0
 10 13  1  0
  2 18  2  0
  3 10  2  0
 33  5  1  0
 13 33  2  0
 11 15  1  0
 20  7  2  0
 31  9  1  0
 28  1  1  0
 30 20  1  0
 22  2  1  0
 14 30  2  0
 29 12  2  0
 28  6  2  0
 12 30  1  0
 14 24  1  0
 17 19  1  0
  1 26  1  0
 33 29  1  0
  5  9  1  0
 16 27  2  0
 22 17  1  0
  3 34  1  0
M  END
> <chembl_id>
CHEMBL2426248

$$$$

  SciTegic04091414352D

 38 43  0  0  0  0            999 V2000
   13.9157   -3.8174    0.0000 O   0  0
   14.7225   -3.6447    0.0000 C   0  0
   15.1359   -4.3586    0.0000 C   0  0
   14.5847   -4.9724    0.0000 O   0  0
   13.8307   -4.6379    0.0000 C   0  0
   13.8318   -5.4629    0.0000 C   0  0
   13.1179   -5.8764    0.0000 C   0  0
   12.4028   -5.4649    0.0000 N   0  0
   12.4017   -4.6400    0.0000 C   0  0
   13.1156   -4.2264    0.0000 C   0  0
   11.6890   -5.8783    0.0000 C   0  0
   10.9740   -5.4669    0.0000 O   0  0
   11.6901   -6.7033    0.0000 N   0  0
    8.8347   -8.3571    0.0000 N   0  0
    8.1196   -7.9457    0.0000 C   0  0
    8.1185   -7.1207    0.0000 N   0  0
    8.8323   -6.7072    0.0000 C   0  0
    9.5474   -7.1188    0.0000 C   0  0
   10.2613   -6.7052    0.0000 C   0  0
   10.9763   -7.1168    0.0000 C   0  0
   10.9774   -7.9418    0.0000 C   0  0
   10.2635   -8.3552    0.0000 C   0  0
    9.5485   -7.9437    0.0000 C   0  0
   11.6925   -8.3532    0.0000 O   0  0
   11.2828  -10.4482    0.0000 O   0  0
   11.0269   -9.6640    0.0000 C   0  0
   11.6936   -9.1782    0.0000 C   0  0  2  0  0  0
   12.3617   -9.6622    0.0000 C   0  0
   12.1078  -10.4471    0.0000 C   0  0
    8.8312   -5.8822    0.0000 N   0  0
    8.1162   -5.4708    0.0000 C   0  0
    7.4024   -5.8843    0.0000 C   0  0
    6.6874   -5.4727    0.0000 C   0  0
    6.6863   -4.6478    0.0000 C   0  0
    7.4001   -4.2344    0.0000 C   0  0
    8.1151   -4.6458    0.0000 C   0  0
    5.9712   -4.2363    0.0000 F   0  0
    5.9735   -5.8862    0.0000 Cl  0  0
  1  2  1  0
  2  3  1  0
  3  4  1  0
  5  4  1  0
  5  6  1  0
  6  7  1  0
  7  8  1  0
  8  9  1  0
  9 10  1  0
  1  5  1  0
  5 10  1  0
 11 12  2  0
 11 13  1  0
  8 11  1  0
 14 15  1  0
 15 16  2  0
 16 17  1  0
 17 18  2  0
 18 19  1  0
 19 20  2  0
 20 21  1  0
 21 22  2  0
 22 23  1  0
 14 23  2  0
 18 23  1  0
 25 26  1  0
 26 27  1  0
 27 28  1  0
 28 29  1  0
 25 29  1  0
 27 24  1  1
 21 24  1  0
 31 32  1  0
 32 33  2  0
 33 34  1  0
 34 35  2  0
 35 36  1  0
 31 36  2  0
 34 37  1  0
 33 38  1  0
 30 31  1  0
 17 30  1  0
 13 20  1  0
M  END
> <chembl_id>
CHEMBL3092300

$$$$

  SciTegic06181315362D

 28 31  0  0  0  0            999 V2000
   14.0185  -18.9194    0.0000 C   0  0
   14.0176  -19.7387    0.0000 N   0  0
   14.7257  -20.1477    0.0000 C   0  0
   15.4353  -19.7382    0.0000 C   0  0
   15.4325  -18.9156    0.0000 C   0  0
   14.7239  -18.5103    0.0000 C   0  0
   16.1402  -20.1450    0.0000 C   0  0
   16.1401  -20.9633    0.0000 C   0  0
   16.8476  -21.3707    0.0000 N   0  0
   16.8437  -19.7358    0.0000 N   0  0
   13.3391  -18.4654    0.0000 C   0  0
   12.6062  -18.8268    0.0000 O   0  0
   13.7395  -17.7553    0.0000 C   0  0
   12.9224  -17.7553    0.0000 C   0  0
   17.5487  -20.1365    0.0000 C   0  0
   17.5582  -20.9585    0.0000 C   0  0
   18.2708  -21.3590    0.0000 N   0  0
   18.9785  -20.9420    0.0000 C   0  0
   18.9690  -20.1200    0.0000 C   0  0
   18.2518  -19.7150    0.0000 N   0  0
   19.6904  -21.3433    0.0000 O   0  0
   18.2412  -18.8979    0.0000 C   0  0
   17.5282  -18.4986    0.0000 C   0  0
   17.5239  -17.6808    0.0000 C   0  0
   16.8150  -17.2814    0.0000 C   0  0
   16.1102  -17.6957    0.0000 O   0  0
   16.1189  -18.5138    0.0000 C   0  0
   16.8324  -18.9176    0.0000 C   0  0
  1  2  2  0
  2  3  1  0
  3  4  2  0
  4  5  1  0
  5  6  2  0
  6  1  1  0
  7  8  2  0
  8  9  1  0
  9 16  2  0
 15 10  2  0
 10  7  1  0
  4  7  1  0
  1 11  1  0
 11 12  1  0
 11 13  1  0
 11 14  1  0
 15 16  1  0
 15 20  1  0
 16 17  1  0
 17 18  1  0
 18 19  1  0
 19 20  1  0
 18 21  2  0
 20 22  1  0
 22 23  1  0
 23 24  1  0
 23 28  1  0
 24 25  1  0
 25 26  1  0
 26 27  1  0
 27 28  1  0
M  END
> <chembl_id>
CHEMBL2348862

$$$$

  SciTegic12171313022D

 37 41  0  0  0  0            999 V2000
   20.5769   -5.4603    0.0000 C   0  0
   20.5758   -6.2798    0.0000 C   0  0
   21.2838   -6.6888    0.0000 N   0  0
   21.9935   -6.2793    0.0000 C   0  0
   21.9907   -5.4567    0.0000 N   0  0
   21.2821   -5.0514    0.0000 C   0  0
   22.7019   -6.6868    0.0000 N   0  0
   23.4089   -6.2771    0.0000 C   0  0
   24.1139   -6.6850    0.0000 C   0  0
   24.8205   -6.2760    0.0000 C   0  0
   24.8197   -5.4580    0.0000 C   0  0
   24.1064   -5.0506    0.0000 C   0  0
   23.4027   -5.4620    0.0000 C   0  0
   24.1022   -4.2335    0.0000 N   0  0
   19.8691   -5.0519    0.0000 Cl  0  0
   24.1140   -7.5022    0.0000 O   0  0
   23.4064   -7.9109    0.0000 C   0  0
   23.3924   -3.8285    0.0000 C   0  0
   23.3882   -3.0113    0.0000 C   0  0
   22.6868   -4.2407    0.0000 O   0  0
   24.0939   -2.5991    0.0000 C   0  0
   25.5262   -5.0473    0.0000 N   0  0
   26.2294   -5.4572    0.0000 C   0  0
   26.9338   -5.0500    0.0000 C   0  0
   26.9357   -4.2325    0.0000 N   0  0
   26.2270   -3.8238    0.0000 C   0  0
   25.5164   -4.2326    0.0000 C   0  0
   27.6438   -3.8245    0.0000 C   0  0
   21.2738   -4.2333    0.0000 C   0  0
   21.9334   -3.7510    0.0000 C   0  0
   21.6786   -2.9746    0.0000 N   0  0
   20.6113   -3.7550    0.0000 C   0  0
   20.8611   -2.9802    0.0000 N   0  0
   20.3156   -2.3784    0.0000 C   0  0
   19.5201   -2.5502    0.0000 C   0  0
   19.2730   -3.3292    0.0000 C   0  0
   19.8202   -3.9276    0.0000 C   0  0
  1  2  2  0
  2  3  1  0
  3  4  2  0
  4  5  1  0
  5  6  2  0
  6  1  1  0
  4  7  1  0
  7  8  1  0
  8  9  2  0
  9 10  1  0
 10 11  2  0
 11 12  1  0
 12 13  2  0
 13  8  1  0
 12 14  1  0
  1 15  1  0
  9 16  1  0
 16 17  1  0
 14 18  1  0
 18 19  1  0
 18 20  2  0
 19 21  2  0
 11 22  1  0
 22 23  1  0
 22 27  1  0
 23 24  1  0
 24 25  1  0
 25 26  1  0
 26 27  1  0
 25 28  1  0
 29 30  1  0
 30 31  2  0
 31 33  1  0
 32 29  2  0
  6 29  1  0
 32 33  1  0
 33 34  1  0
 34 35  2  0
 35 36  1  0
 36 37  2  0
 37 32  1  0
M  END
> <chembl_id>
CHEMBL2426277

$$$$

  SciTegic02271217242D

 26 29  0  0  0  0            999 V2000
   10.4872  -26.1777    0.0000 N   0  0
   11.2037  -25.7644    0.0000 C   0  0
   11.2008  -24.9338    0.0000 N   0  0
   10.4854  -24.5247    0.0000 C   0  0
    9.7724  -25.7648    0.0000 C   0  0
    9.7737  -24.9359    0.0000 C   0  0
    8.9857  -24.6786    0.0000 N   0  0
    8.4974  -25.3485    0.0000 C   0  0
    8.9837  -26.0197    0.0000 C   0  0
   10.4836  -23.6997    0.0000 N   0  0
   11.1972  -23.2856    0.0000 C   0  0
   11.9094  -23.6995    0.0000 C   0  0
   12.6225  -23.2861    0.0000 C   0  0
   12.6212  -22.4603    0.0000 C   0  0
   11.9008  -22.0495    0.0000 C   0  0
   11.1906  -22.4652    0.0000 C   0  0
   13.3377  -23.6974    0.0000 Cl  0  0
   13.3342  -22.0452    0.0000 O   0  0
   14.0501  -22.4552    0.0000 C   0  0
   14.0501  -23.2803    0.0000 C   0  0
   14.7652  -23.6902    0.0000 C   0  0
   15.4792  -23.2751    0.0000 C   0  0
   15.4736  -22.4458    0.0000 C   0  0
   14.7580  -22.0397    0.0000 C   0  0
   16.1923  -23.6812    0.0000 C   0  0
   16.9087  -24.0902    0.0000 N   0  0
  5  1  1  0
 12 13  1  0
  2  3  1  0
 13 14  2  0
 14 15  1  0
  3  4  2  0
 15 16  2  0
 16 11  1  0
  6  7  1  0
 13 17  1  0
  7  8  1  0
 14 18  1  0
  8  9  2  0
 18 19  1  0
  9  5  1  0
 19 20  2  0
  4  6  1  0
 20 21  1  0
  4 10  1  0
 21 22  2  0
  5  6  2  0
 22 23  1  0
 10 11  1  0
 23 24  2  0
 24 19  1  0
  1  2  2  0
 11 12  2  0
 25 26  3  0
 22 25  1  0
M  END
> <chembl_id>
CHEMBL1922903

$$$$

  SciTegic12091614152D

 33 35  0  0  0  0            999 V2000
    1.2990   -0.7500    0.0000 C   0  0
    1.2990    0.7500    0.0000 C   0  0
    0.0000    1.5000    0.0000 C   0  0
   -1.2990    0.7500    0.0000 C   0  0
   -1.2990   -0.7500    0.0000 C   0  0
    0.0000   -1.5000    0.0000 C   0  0
    2.5973   -1.5031    0.0000 N   0  0
   -0.0031    3.0008    0.0000 N   0  0
    1.2883   -5.2495    0.0000 C   0  0
    1.2935   -3.7495    0.0000 N   0  0
    2.5951   -3.0039    0.0000 C   0  0
    3.8915   -3.7585    0.0000 C   0  0
    3.8864   -5.2585    0.0000 C   0  0
    2.5847   -6.0040    0.0000 N   0  0
   -0.0125   -5.9981    0.0000 N   0  0
   -0.0155   -7.4989    0.0000 N   0  0
   -1.3163   -8.2475    0.0000 C   0  0
   -1.3194   -9.7484    0.0000 C   0  0
   -2.6184  -10.4985    0.0000 C   0  0
   -2.6184  -11.9985    0.0000 C   0  0
   -1.3193  -12.7484    0.0000 C   0  0
   -0.0203  -11.9984    0.0000 C   0  0
   -0.0203  -10.4984    0.0000 C   0  0
    4.9329   -3.1621    0.0000 Cl  0  0
   -1.3039    3.7494    0.0000 C   0  0
   -2.3421    3.1476    0.0000 O   0  0
   -1.3070    5.2502    0.0000 C   0  0
   -2.6078    5.9988    0.0000 C   0  0
   -2.6109    7.4996    0.0000 C   0  0
   -3.9118    8.2481    0.0000 N   0  0
   -3.9142    9.4481    0.0000 C   0  0
   -4.9499    7.6463    0.0000 C   0  0
   -1.3193  -13.9484    0.0000 F   0  0
  1  2  1  0
  2  3  2  0
  3  4  1  0
  4  5  2  0
  5  6  1  0
  1  6  2  0
  1  7  1  0
  3  8  1  0
  9 10  1  0
 10 11  2  0
 11 12  1  0
 12 13  2  0
 13 14  1  0
  9 14  2  0
 15 16  1  0
 17 18  1  0
 18 19  1  0
 19 20  2  0
 20 21  1  0
 21 22  2  0
 22 23  1  0
 18 23  2  0
 16 17  2  0
  9 15  1  0
 12 24  1  0
  7 11  1  0
  8 25  1  0
 25 26  2  0
 25 27  1  0
 27 28  2  0
 28 29  1  0
 29 30  1  0
 30 31  1  0
 30 32  1  0
 21 33  1  0
M  END
> <chembl_id>
CHEMBL3741762

$$$$

  SciTegic12131613492D

 27 31  0  0  0  0            999 V2000
    0.8955    2.0810    0.0000 C   0  0
    1.7138    1.2033    0.0000 C   0  0
    2.8908    1.4370    0.0000 C   0  0
   -1.0028    1.5132    0.0000 N   0  0
   -2.3155    0.7475    0.0000 C   0  0
   -2.3155   -0.7475    0.0000 N   0  0
   -1.0028   -1.5132    0.0000 C   0  0
    0.2917    0.7475    0.0000 C   0  0
    0.2917   -0.7475    0.0000 C   0  0
    1.7138   -1.2033    0.0000 C   0  0
    2.5889    0.0182    0.0000 O   0  0
   -3.6168    1.4950    0.0000 C   0  0
   -4.9669    0.8708    0.0000 C   0  0
   -5.9732    1.9832    0.0000 N   0  0
   -5.2262    3.2840    0.0000 N   0  0
   -3.7582    2.9755    0.0000 C   0  0
   -0.9971   -3.0138    0.0000 N   0  0
   -2.2935   -3.7700    0.0000 C   0  0
   -4.6304   -4.2656    0.0000 N   0  0
   -3.6203   -3.1531    0.0000 N   0  0
   -3.8857   -5.5600    0.0000 C   0  0
   -2.4241   -5.2456    0.0000 C   0  0
   -1.4032   -6.3500    0.0000 C   0  0
   -1.8757   -7.7944    0.0000 C   0  0
   -3.3373   -8.1089    0.0000 C   0  0
   -4.3620   -6.9866    0.0000 C   0  0
   -3.7027   -9.2519    0.0000 Cl  0  0
  2  1  1  0
  3  2  1  0
  8  4  1  0
  4  5  2  0
  5  6  1  0
  6  7  2  0
  7  9  1  0
  8  9  2  0
  9 10  1  0
 10 11  1  0
 11  2  1  0
  2  8  1  0
  5 12  1  0
 12 13  2  0
 13 14  1  0
 14 15  1  0
 15 16  2  0
 16 12  1  0
  7 17  1  0
 17 18  1  0
 18 22  1  0
 21 19  1  0
 19 20  1  0
 20 18  2  0
 21 22  2  0
 22 23  1  0
 23 24  2  0
 24 25  1  0
 25 26  2  0
 26 21  1  0
 25 27  1  0
M  END
> <chembl_id>
CHEMBL3758773

$$$$

  SciTegic12201616162D

 32 35  0  0  0  0            999 V2000
    3.8942   -1.4964    0.0000 N   0  0
    5.1929   -0.7441    0.0000 C   0  0
    5.1908    0.4559    0.0000 S   0  0
    6.4942   -1.4919    0.0000 N   0  0
    7.7928   -0.7396    0.0000 C   0  0
    9.0941   -1.4873    0.0000 C   0  0
   10.3928   -0.7351    0.0000 C   0  0
   14.2923   -2.9828    0.0000 O   0  0
   14.2923   -1.4828    0.0000 C   0  0
   12.9932   -0.7328    0.0000 C   0  0
   11.6941   -1.4828    0.0000 N   0  0
   11.6942   -2.9829    0.0000 C   0  0
   12.9933   -3.7328    0.0000 C   0  0
   -1.2964    1.4973    0.0000 N   0  0
   -2.6111    0.7486    0.0000 C   0  0
   -2.6111   -0.7486    0.0000 N   0  0
   -1.2964   -1.4973    0.0000 C   0  0
    0.0000   -0.7486    0.0000 C   0  0
    1.2964   -1.4973    0.0000 C   0  0
    2.5929   -0.7486    0.0000 C   0  0
    2.5929    0.7486    0.0000 C   0  0
    1.2964    1.4973    0.0000 C   0  0
    0.0000    0.7486    0.0000 C   0  0
   -1.2907   -2.9981    0.0000 N   0  0
   -2.5870   -3.7544    0.0000 C   0  0
   -2.5835   -5.2544    0.0000 C   0  0
   -3.8807   -6.0076    0.0000 C   0  0
   -5.1815   -5.2608    0.0000 C   0  0
   -5.1852   -3.7608    0.0000 C   0  0
   -3.8880   -3.0076    0.0000 C   0  0
   -3.8777   -7.2076    0.0000 Cl  0  0
   -6.2193   -5.8633    0.0000 F   0  0
  1  2  1  0
  2  3  2  0
  2  4  1  0
  5  6  1  0
  6  7  1  0
  8  9  1  0
  9 10  1  0
 10 11  1  0
 11 12  1  0
 12 13  1  0
  8 13  1  0
  7 11  1  0
  4  5  1  0
 14 15  1  0
 15 16  2  0
 16 17  1  0
 17 18  2  0
 18 19  1  0
 19 20  2  0
 20 21  1  0
 21 22  2  0
 22 23  1  0
 14 23  2  0
 18 23  1  0
 25 26  1  0
 26 27  2  0
 27 28  1  0
 28 29  2  0
 29 30  1  0
 25 30  2  0
 24 25  1  0
 17 24  1  0
  1 20  1  0
 27 31  1  0
 28 32  1  0
M  END
> <chembl_id>
CHEMBL3813876

$$$$

  SciTegic12201615542D

 42 47  0  0  0  0            999 V2000
    1.4499    7.7742    0.0000 C   0  0
    0.5265    8.9573    0.0000 C   0  0
    0.9759   10.0700    0.0000 C   0  0
    2.6383    7.9411    0.0000 O   0  0
    0.8879    6.3826    0.0000 N   0  0
    1.8114    5.1995    0.0000 C   0  0
    1.2517    3.8078    0.0000 C   0  0
    2.1749    2.6315    0.0000 C   0  0
    3.6621    2.8384    0.0000 C   0  0
    4.2218    4.2301    0.0000 C   0  0
    3.2965    5.4106    0.0000 C   0  0
   -1.0028   -1.5132    0.0000 C   0  0
    0.2917   -0.7475    0.0000 C   0  0
    0.2917    0.7475    0.0000 C   0  0
   -1.0028    1.5132    0.0000 C   0  0
   -2.3155    0.7475    0.0000 C   0  0
   -2.3155   -0.7475    0.0000 C   0  0
    2.5889    0.0182    0.0000 C   0  0
    1.7138   -1.2033    0.0000 N   0  0
    1.7138    1.2033    0.0000 N   0  0
    4.0896    0.0290    0.0000 C   0  0
    4.9234    1.2700    0.0000 C   0  0
    4.7453   -1.3220    0.0000 N   0  0
    6.4199    1.1671    0.0000 N   0  0
    7.0791   -0.1803    0.0000 C   0  0
    6.2418   -1.4248    0.0000 C   0  0
    7.2286   -5.1568    0.0000 N   0  0
    8.5770   -4.4998    0.0000 N   0  0
    8.3688   -3.0143    0.0000 C   0  0
    6.9013   -2.7729    0.0000 C   0  0
    6.1870   -4.0774    0.0000 C   0  0
    6.9674   -6.6347    0.0000 C   0  0
    4.3957    2.3477    0.0000 N   0  0
    8.0374   -7.6789    0.0000 C   0  0
    7.6659   -9.1322    0.0000 C   0  0
    6.2216   -9.5371    0.0000 N   0  0
    5.1488   -8.4888    0.0000 C   0  0
    5.5202   -7.0355    0.0000 C   0  0
    5.8470  -10.9905    0.0000 C   0  0
    6.7038  -11.8306    0.0000 O   0  0
    4.4013  -11.3936    0.0000 C   0  0
    4.1018  -12.5556    0.0000 O   0  0
  1  2  1  0
  2  3  2  0
  1  4  2  0
  1  5  1  0
  6  7  1  0
  7  8  2  0
  8  9  1  0
  9 10  2  0
 10 11  1  0
  6 11  2  0
 12 13  1  0
 13 14  2  0
 14 15  1  0
 15 16  2  0
 16 17  1  0
 12 17  2  0
 18 19  2  0
 18 20  1  0
 13 19  1  0
 14 20  1  0
 21 22  1  0
 21 23  2  0
 22 24  2  0
 24 25  1  0
 25 26  2  0
 23 26  1  0
 27 28  1  0
 28 29  2  0
 29 30  1  0
 30 31  2  0
 27 31  1  0
 27 32  1  0
 26 30  1  0
 22 33  1  0
 18 21  1  0
  8 20  1  0
  5  6  1  0
 32 34  1  0
 32 38  1  0
 34 35  1  0
 35 36  1  0
 36 37  1  0
 37 38  1  0
 36 39  1  0
 39 40  2  0
 39 41  1  0
 41 42  1  0
M  END
> <chembl_id>
CHEMBL3813997

$$$$

  SciTegic12201616162D

 31 34  0  0  0  0            999 V2000
    3.8942   -1.4964    0.0000 N   0  0
    5.1929   -0.7441    0.0000 C   0  0
    5.1908    0.4559    0.0000 S   0  0
    6.4942   -1.4919    0.0000 N   0  0
    7.7928   -0.7396    0.0000 C   0  0
    9.0941   -1.4873    0.0000 C   0  0
   12.9858    0.7740    0.0000 O   0  0
   12.9909   -0.7260    0.0000 C   0  0
   11.6945   -1.4805    0.0000 C   0  0
   10.3928   -0.7351    0.0000 N   0  0
   10.3877    0.7650    0.0000 C   0  0
   11.6841    1.5195    0.0000 C   0  0
   -1.2964    1.4973    0.0000 N   0  0
   -2.6111    0.7486    0.0000 C   0  0
   -2.6111   -0.7486    0.0000 N   0  0
   -1.2964   -1.4973    0.0000 C   0  0
    0.0000   -0.7486    0.0000 C   0  0
    1.2964   -1.4973    0.0000 C   0  0
    2.5929   -0.7486    0.0000 C   0  0
    2.5929    0.7486    0.0000 C   0  0
    1.2964    1.4973    0.0000 C   0  0
    0.0000    0.7486    0.0000 C   0  0
   -1.2907   -2.9981    0.0000 N   0  0
   -2.5870   -3.7544    0.0000 C   0  0
   -2.5835   -5.2544    0.0000 C   0  0
   -3.8807   -6.0076    0.0000 C   0  0
   -5.1815   -5.2608    0.0000 C   0  0
   -5.1852   -3.7608    0.0000 C   0  0
   -3.8880   -3.0076    0.0000 C   0  0
   -6.2193   -5.8633    0.0000 Cl  0  0
   -3.8777   -7.2076    0.0000 Cl  0  0
  1  2  1  0
  2  3  2  0
  2  4  1  0
  5  6  1  0
  7  8  1  0
  8  9  1  0
  9 10  1  0
 10 11  1  0
 11 12  1  0
  7 12  1  0
  6 10  1  0
  4  5  1  0
 13 14  1  0
 14 15  2  0
 15 16  1  0
 16 17  2  0
 17 18  1  0
 18 19  2  0
 19 20  1  0
 20 21  2  0
 21 22  1  0
 13 22  2  0
 17 22  1  0
 24 25  1  0
 25 26  2  0
 26 27  1  0
 27 28  2  0
 28 29  1  0
 24 29  2  0
 27 30  1  0
 26 31  1  0
 23 24  1  0
 16 23  1  0
  1 19  1  0
M  END
> <chembl_id>
CHEMBL3814182

$$$$

  SciTegic01181116592D

 45 51  0  0  0  0            999 V2000
    5.2732   -1.7934    0.0000 C   0  0  2  0  0  0
    4.7217   -2.4057    0.0000 C   0  0
    4.9735   -3.1875    0.0000 C   0  0
    5.7799   -3.3634    0.0000 C   0  0  2  0  0  0
    6.3342   -2.7510    0.0000 C   0  0
    6.0820   -1.9627    0.0000 C   0  0
    6.0318   -4.1491    0.0000 N   0  0
    5.4789   -4.7579    0.0000 C   0  0
    5.7277   -5.5407    0.0000 C   0  0
    6.5335   -5.7196    0.0000 N   0  0
    7.0900   -5.1093    0.0000 C   0  0
    6.8408   -4.3201    0.0000 C   0  0
    6.7823   -6.5062    0.0000 C   0  0
    5.0172   -1.0091    0.0000 N   0  0
    2.8069    0.0667    0.0000 N   0  0
    2.8057   -0.7565    0.0000 C   0  0
    3.5247   -1.1694    0.0000 N   0  0
    3.5229    0.4795    0.0000 C   0  0
    4.2341    0.0703    0.0000 C   0  0
    4.2349   -0.7565    0.0000 C   0  0
    5.5030   -0.3460    0.0000 N   0  0
    5.0192    0.3241    0.0000 C   0  0
    5.4299    1.0390    0.0000 C   0  0
    6.2558    1.0371    0.0000 C   0  0
    6.6666    1.7516    0.0000 C   0  0
    6.2525    2.4662    0.0000 C   0  0
    5.4232    2.4617    0.0000 C   0  0
    5.0161    1.7465    0.0000 C   0  0
    6.6624    3.1821    0.0000 N   0  0
    7.4874    3.1850    0.0000 C   0  0
    7.9742    2.5246    0.0000 O   0  0
    7.9695    3.8594    0.0000 N   0  0
    8.7550    3.6074    0.0000 C   0  0
    8.7558    2.7851    0.0000 C   0  0
    9.4670    2.3765    0.0000 C   0  0
   10.1781    2.7889    0.0000 C   0  0
   10.1734    3.6142    0.0000 C   0  0
    9.4615    4.0225    0.0000 C   0  0
    9.4687    1.5515    0.0000 Cl  0  0
    3.5225    1.3045    0.0000 N   0  0
    7.5880   -6.6839    0.0000 C   0  0
    7.8368   -7.4705    0.0000 N   0  0
    8.1447   -6.0751    0.0000 O   0  0
    7.2801   -8.0793    0.0000 C   0  0
    8.6425   -7.6482    0.0000 C   0  0
 14 21  1  0
 21 22  2  0
 22 19  1  0
  8  9  1  0
 22 23  1  0
  9 10  1  0
 23 24  2  0
 10 11  1  0
 24 25  1  0
 11 12  1  0
 25 26  2  0
  5  6  1  0
 26 27  1  0
 10 13  1  0
 27 28  2  0
 28 23  1  0
  1  2  1  0
 26 29  1  0
  1 14  1  1
 29 30  1  0
 30 31  1  0
  4  7  1  6
  7  8  1  0
 31 34  1  0
 33 32  1  0
 32 30  2  0
 15 16  2  0
 33 34  2  0
 16 17  1  0
 34 35  1  0
 17 20  2  0
 35 36  2  0
  1  6  1  0
 36 37  1  0
 19 18  2  0
 37 38  2  0
 38 33  1  0
 18 15  1  0
 35 39  1  0
 19 20  1  0
 18 40  1  0
  2  3  1  0
 13 41  1  0
  3  4  1  0
 41 42  1  0
  4  5  1  0
 41 43  2  0
  7 12  1  0
 42 44  1  0
 20 14  1  0
 42 45  1  0
M  END
> <chembl_id>
CHEMBL1256429

$$$$

  SciTegic12091611192D

 30 34  0  0  0  0            999 V2000
   -3.6217    1.4865    0.0000 N   0  0
   -7.5133    0.6990    0.0000 C   0  0
   -6.2219    1.4621    0.0000 N   0  0
   -4.9153    0.7255    0.0000 C   0  0
   -4.9001   -0.7745    0.0000 C   0  0
   -6.1914   -1.5377    0.0000 C   0  0
   -7.4980   -0.8010    0.0000 N   0  0
   -8.8205    1.4361    0.0000 N   0  0
   -8.8383    2.9360    0.0000 C   0  0
  -10.1461    3.6707    0.0000 C   0  0
  -11.4362    2.9055    0.0000 C   0  0
  -11.4185    1.4056    0.0000 C   0  0
  -10.1108    0.6709    0.0000 C   0  0
  -12.7462    3.6378    0.0000 O   0  0
  -13.7774    3.0242    0.0000 C   0  0
   -1.0028   -1.5132    0.0000 C   0  0
    0.2917   -0.7475    0.0000 C   0  0
    0.2917    0.7475    0.0000 C   0  0
   -1.0028    1.5132    0.0000 C   0  0
   -2.3155    0.7475    0.0000 C   0  0
   -2.3155   -0.7475    0.0000 N   0  0
    2.5889    0.0182    0.0000 C   0  0
    1.7138   -1.2033    0.0000 N   0  0
    1.7138    1.2033    0.0000 N   0  0
    2.1749    2.6315    0.0000 C   0  0
    1.2517    3.8078    0.0000 C   0  0
    1.8114    5.1995    0.0000 C   0  0
    3.2965    5.4106    0.0000 C   0  0
    4.2218    4.2301    0.0000 C   0  0
    3.6621    2.8384    0.0000 C   0  0
  2  3  1  0
  3  4  2  0
  4  5  1  0
  5  6  2  0
  6  7  1  0
  2  7  2  0
  8  9  1  0
  9 10  1  0
 10 11  1  0
 11 12  1  0
 12 13  1  0
  8 13  1  0
 14 15  1  0
 11 14  1  0
  2  8  1  0
  1  4  1  0
 16 17  1  0
 17 18  2  0
 18 19  1  0
 19 20  2  0
 20 21  1  0
 16 21  2  0
 22 23  2  0
 22 24  1  0
 17 23  1  0
 18 24  1  0
  1 20  1  0
 24 25  1  0
 25 26  1  0
 25 30  1  0
 26 27  1  0
 27 28  1  0
 28 29  1  0
 29 30  1  0
M  END
> <chembl_id>
CHEMBL3735335

$$$$

  SciTegic11201309402D

146156  0  0  0  0            999 V2000
   10.6064  -15.8216    0.0000 C   0  0
   10.6172  -16.6634    0.0000 C   0  0  2  0  0  0
   11.3427  -17.0747    0.0000 C   0  0
   12.0678  -16.6425    0.0000 S   0  0
   13.5229  -16.6345    0.0000 C   0  0
   12.7990  -17.0544    0.0000 S   0  0
   12.0296  -13.3808    0.0000 C   0  0
   12.7438  -12.9583    0.0000 N   0  0
   13.4688  -13.3527    0.0000 C   0  0  2  0  0  0
   14.9638  -16.6071    0.0000 N   0  0
   14.2406  -17.0412    0.0000 C   0  0  2  0  0  0
   10.6010  -14.2085    0.0000 C   0  0
   10.6021  -13.3873    0.0000 N   0  0
   11.3115  -12.9798    0.0000 C   0  0  1  0  0  0
    9.8889  -14.6330    0.0000 C   0  0  1  0  0  0
    9.9003  -15.4570    0.0000 N   0  0
   14.1727  -12.9214    0.0000 C   0  0
   14.8956  -13.3147    0.0000 N   0  0
   15.5995  -12.8834    0.0000 C   0  0  2  0  0  0
   16.3267  -13.2808    0.0000 C   0  0
   16.3458  -14.1054    0.0000 N   0  0
   17.0729  -14.4987    0.0000 C   0  0  2  0  0  0
   17.0920  -15.3233    0.0000 C   0  0
   16.3881  -15.7546    0.0000 N   0  0
   16.4072  -16.5792    0.0000 C   0  0
   15.7033  -17.0105    0.0000 C   0  0
    9.9081  -17.0832    0.0000 N   0  0
   11.3066  -15.3843    0.0000 O   0  0
    9.1681  -14.2325    0.0000 C   0  0
    9.1537  -13.4076    0.0000 C   0  0
    8.4575  -14.6568    0.0000 C   0  0
   11.3208  -14.6182    0.0000 O   0  0
   11.3068  -12.1548    0.0000 C   0  0
   10.5865  -11.7458    0.0000 C   0  0
   10.5849  -10.9242    0.0000 C   0  0
    9.8659  -10.5154    0.0000 C   0  0
    9.1530  -10.9357    0.0000 C   0  0
    9.1618  -11.7629    0.0000 C   0  0
    9.8816  -12.1661    0.0000 C   0  0
   12.0421  -14.2057    0.0000 O   0  0
   13.4646  -12.5277    0.0000 C   0  0
   15.5805  -12.0588    0.0000 C   0  0
   16.2844  -11.6316    0.0000 C   0  0
   14.8533  -11.6655    0.0000 C   0  0
   17.0306  -12.8495    0.0000 O   0  0
   17.7768  -14.0674    0.0000 C   0  0
   18.4998  -14.4648    0.0000 C   0  0
   18.5203  -15.2874    0.0000 C   0  0
   19.2420  -15.6806    0.0000 C   0  0
   19.9474  -15.2492    0.0000 C   0  0
   19.9241  -14.4224    0.0000 C   0  0
   19.2017  -14.0307    0.0000 C   0  0
   17.8191  -15.7166    0.0000 O   0  0
   15.7262  -17.8351    0.0000 O   0  0
   14.2528  -17.8661    0.0000 C   0  0
   14.9684  -18.2727    0.0000 O   0  0
   14.1494  -12.0968    0.0000 O   0  0
   12.7487  -12.1182    0.0000 C   0  0
   12.7404  -11.2933    0.0000 C   0  0
   12.0142  -10.0619    0.0000 C   0  0
   12.8222  -17.8828    0.0000 C   0  0
   12.1146  -18.3053    0.0000 C   0  0
   12.1226  -19.1302    0.0000 O   0  0
    9.0305  -15.1461    0.0000 H   0  0
  -13.8101   -9.9400    0.0000 C   0  0
  -13.9171  -10.7612    0.0000 C   0  0
  -13.2516  -11.2576    0.0000 C   0  0
  -13.0584   -9.6165    0.0000 C   0  0
  -12.3940  -10.1093    0.0000 C   0  0
  -12.4936  -10.9343    0.0000 C   0  0
  -11.7388  -11.2847    0.0000 N   0  0
  -11.5762   -9.9499    0.0000 C   0  0
  -11.1767  -10.6772    0.0000 C   0  0
   -9.9252   -9.9822    0.0000 C   0  0
  -10.3519  -10.6955    0.0000 C   0  0
   -9.1120  -10.1724    0.0000 C   0  0
   -9.0403  -11.0032    0.0000 C   0  0
   -8.2852  -11.3563    0.0000 C   0  0
   -7.6023  -10.8797    0.0000 C   0  0
   -7.6780  -10.0461    0.0000 C   0  0
   -8.4329   -9.6968    0.0000 C   0  0
  -11.1595   -9.2419    0.0000 C   0  0
  -10.3222   -9.2577    0.0000 C   0  0
  -10.0518   -8.4738    0.0000 C   0  0
  -10.7150   -7.9735    0.0000 N   0  0
  -11.3932   -8.4483    0.0000 C   0  0
   -9.2661   -8.2338    0.0000 O   0  0
  -11.5220  -12.1406    0.0000 C   0  0  2  0  0  0
  -11.5220  -12.9656    0.0000 C   0  0  1  0  0  0
  -10.8174  -13.3739    0.0000 C   0  0  1  0  0  0
  -10.1044  -12.9656    0.0000 C   0  0
  -10.1044  -12.1406    0.0000 C   0  0  1  0  0  0
  -10.8174  -11.7239    0.0000 O   0  0
   -9.8887  -11.3406    0.0000 N   0  0
  -10.8174  -14.1989    0.0000 N   0  0
  -10.0985  -14.6114    0.0000 C   0  0
  -12.2415  -13.3791    0.0000 O   0  0
  -12.9514  -12.9677    0.0000 C   0  0
  -12.3470  -12.1364    0.0000 C   0  0
  -11.5279  -14.6114    0.0000 C   0  0
  -12.2468  -14.1989    0.0000 O   0  0
  -11.5279  -15.4364    0.0000 C   0  0
  -10.8174  -15.8489    0.0000 C   0  0
  -10.8174  -16.6739    0.0000 C   0  0
  -10.0985  -17.0864    0.0000 N   0  0
  -11.5279  -17.0864    0.0000 O   0  0
   -9.3880  -16.6739    0.0000 C   0  0
   -8.6691  -17.0864    0.0000 C   0  0
   -7.9586  -16.6739    0.0000 C   0  0
   -7.2397  -17.0864    0.0000 N   0  0
   -7.9586  -15.8489    0.0000 O   0  0
   -6.5292  -16.6739    0.0000 C   0  0
   -5.8087  -17.0864    0.0000 C   0  0
   -5.0942  -16.6739    0.0000 C   0  0
   -4.3798  -17.0864    0.0000 N   0  0
   -5.0942  -15.8489    0.0000 O   0  0
   -3.6653  -16.6739    0.0000 C   0  0
   -2.9508  -17.0864    0.0000 C   0  0
   -2.2364  -16.6739    0.0000 C   0  0
   -1.5219  -17.0864    0.0000 N   0  0
   -2.2364  -15.8489    0.0000 O   0  0
   -0.8074  -16.6739    0.0000 C   0  0
   -0.0930  -17.0864    0.0000 C   0  0
    0.6215  -16.6739    0.0000 C   0  0
    1.3360  -17.0864    0.0000 N   0  0
    0.6215  -15.8489    0.0000 O   0  0
    2.0505  -16.6739    0.0000 C   0  0
    2.7649  -17.0864    0.0000 C   0  0
    3.4794  -16.6739    0.0000 C   0  0
    4.1939  -17.0864    0.0000 N   0  0
    3.4794  -15.8489    0.0000 O   0  0
    4.9083  -16.6739    0.0000 C   0  0
    5.6228  -17.0864    0.0000 C   0  0
    6.3373  -16.6739    0.0000 C   0  0
    7.0518  -17.0864    0.0000 N   0  0
    6.3373  -15.8489    0.0000 O   0  0
    7.7662  -16.6739    0.0000 C   0  0
    8.4807  -17.0864    0.0000 C   0  0
    9.1952  -16.6739    0.0000 C   0  0
    9.1952  -15.8489    0.0000 O   0  0
   13.5423  -18.2854    0.0000 N   0  0
   12.0225  -10.8868    0.0000 N   0  0
   11.2983   -9.6524    0.0000 N   0  0
   12.7300   -9.6421    0.0000 N   0  0
   11.3948  -17.9028    0.0000 N   0  0
   -9.1131  -12.2719    0.0000 H   0  0
 69 70  1  0
  5  6  1  0
  6  4  1  0
  7  8  1  0
 70 71  1  0
 71 73  1  0
 72 69  1  0
  8  9  1  0
  5 11  1  0
 72 73  2  0
 73 75  1  0
 74 83  1  0
 82 72  1  0
 74 75  2  0
 11 10  1  0
 12 13  1  0
 75 94  1  0
 94 77  1  0
 76 74  1  0
  7 14  1  0
 13 14  1  0
 76 77  2  0
 15 16  1  0
 77 78  1  0
 12 15  1  0
 78 79  2  0
 16  1  1  0
 79 80  1  0
 10 26  1  0
 80 81  2  0
 81 76  1  0
 82 83  2  0
  9 17  1  0
 17 18  1  0
 18 19  1  0
 19 20  1  0
 20 21  1  0
 83 84  1  0
 84 85  1  0
 85 86  1  0
 86 82  1  0
 21 22  1  0
 84 87  2  0
 22 23  1  0
 71 88  1  0
 88 89  1  0
 23 24  1  0
 24 25  1  0
 25 26  1  0
  2 27  1  6
  1 28  2  0
 88 93  1  0
 89 90  1  0
 90 91  1  0
 91 92  1  0
 92 93  1  0
 15 29  1  0
 92 94  1  0
 29 30  1  0
 90 95  1  1
 29 31  1  0
 95 96  1  0
 12 32  2  0
 89 97  1  1
 14 33  1  1
 97 98  1  0
 33 34  1  0
 88 99  1  6
 34 35  2  0
 95100  1  0
 35 36  1  0
100101  2  0
 36 37  2  0
100102  1  0
 37 38  1  0
102103  1  0
 38 39  2  0
103104  1  0
 39 34  1  0
104105  1  0
  7 40  2  0
104106  2  0
  9 41  1  6
105107  1  0
 19 42  1  1
107108  1  0
 42 43  1  0
108109  1  0
 42 44  1  0
109110  1  0
 20 45  2  0
109111  2  0
 22 46  1  1
110112  1  0
 46 47  1  0
112113  1  0
 47 48  2  0
113114  1  0
 48 49  1  0
114115  1  0
 49 50  2  0
114116  2  0
 50 51  1  0
115117  1  0
 51 52  2  0
117118  1  0
 52 47  1  0
118119  1  0
 23 53  2  0
119120  1  0
 26 54  2  0
119121  2  0
 11 55  1  6
120122  1  0
122123  1  0
 55 56  2  0
123124  1  0
 17 57  2  0
124125  1  0
 41 58  1  0
124126  2  0
 58 59  1  0
125127  1  0
127128  1  0
128129  1  0
129130  1  0
129131  2  0
130132  1  0
 61 62  1  0
132133  1  0
133134  1  0
 62 63  2  0
134135  1  0
 15 64  1  6
134136  2  0
135137  1  0
  1  2  1  0
137138  1  0
 65 66  2  0
138139  1  0
139 27  1  0
  2  3  1  0
139140  2  0
 66 67  1  0
 67 70  2  0
  3  4  1  0
 69 68  2  0
 68 65  1  0
 55141  1  0
141 61  1  0
 60143  1  0
 60144  2  0
 59142  1  0
142 60  1  0
 62145  1  0
 92146  1  6
M  END
> <chembl_id>
CHEMBL595545

$$$$

  SciTegic01181116592D

 28 31  0  0  0  0            999 V2000
    9.8332  -28.1771    0.0000 N   0  0
   10.5504  -27.7635    0.0000 C   0  0
   10.5474  -26.9322    0.0000 N   0  0
    9.8314  -26.5227    0.0000 C   0  0
    9.8290  -25.6970    0.0000 N   0  0
    9.1178  -27.7639    0.0000 C   0  0
    9.1145  -26.9389    0.0000 C   0  0
    8.3342  -28.0220    0.0000 S   0  0
    7.8465  -27.3565    0.0000 C   0  0
    8.3285  -26.6888    0.0000 C   0  0
    7.9931  -25.9416    0.0000 C   0  0
    7.1747  -25.8558    0.0000 C   0  0
    6.6927  -26.5231    0.0000 N   0  0
    7.0291  -27.2771    0.0000 C   0  0
   10.5428  -25.2820    0.0000 C   0  0  1  0  0  0
   11.2592  -25.6927    0.0000 C   0  0
   10.5403  -24.4563    0.0000 C   0  0
   11.2595  -26.5158    0.0000 C   0  0
   11.9749  -26.9264    0.0000 C   0  0
   12.6898  -26.5114    0.0000 C   0  0
   12.6846  -25.6814    0.0000 C   0  0
   11.9686  -25.2744    0.0000 C   0  0
   11.2543  -24.0413    0.0000 O   0  0
    5.8672  -26.5412    0.0000 S   0  0
    5.8593  -25.7140    0.0000 O   0  0
    5.8593  -27.3654    0.0000 O   0  0
    5.0418  -26.5630    0.0000 C   0  0
    4.6102  -25.8590    0.0000 C   0  0
 11 12  1  0
 12 13  1  0
 13 14  1  0
  2  3  1  0
  5 15  1  0
 15 16  1  0
  7 10  1  0
 15 17  1  6
  9  8  1  0
 16 18  2  0
  8  6  1  0
 18 19  1  0
  9 10  2  0
 19 20  2  0
  3  4  2  0
 20 21  1  0
  4  7  1  0
 21 22  2  0
 22 16  1  0
  1  2  2  0
 17 23  1  0
  4  5  1  0
 13 24  1  0
  6  7  2  0
 24 25  2  0
  6  1  1  0
 24 26  2  0
  9 14  1  0
 24 27  1  0
 10 11  1  0
 27 28  2  0
M  END
> <chembl_id>
CHEMBL1272167

$$$$

  SciTegic12091611192D

 29 33  0  0  0  0            999 V2000
   -3.6217    1.4865    0.0000 N   0  0
   -7.5133    0.6990    0.0000 C   0  0
   -6.2219    1.4621    0.0000 N   0  0
   -4.9153    0.7255    0.0000 C   0  0
   -4.9001   -0.7745    0.0000 C   0  0
   -6.1914   -1.5377    0.0000 C   0  0
   -7.4980   -0.8010    0.0000 N   0  0
   -8.8205    1.4361    0.0000 N   0  0
   -8.8383    2.9360    0.0000 C   0  0
  -10.1461    3.6707    0.0000 C   0  0
  -11.4362    2.9055    0.0000 C   0  0
  -11.4185    1.4056    0.0000 C   0  0
  -10.1108    0.6709    0.0000 C   0  0
  -12.7462    3.6378    0.0000 O   0  0
  -13.7774    3.0242    0.0000 C   0  0
   -1.0028   -1.5132    0.0000 C   0  0
    0.2917   -0.7475    0.0000 C   0  0
    0.2917    0.7475    0.0000 C   0  0
   -1.0028    1.5132    0.0000 C   0  0
   -2.3155    0.7475    0.0000 C   0  0
   -2.3155   -0.7475    0.0000 N   0  0
    2.5889    0.0182    0.0000 C   0  0
    1.7138   -1.2033    0.0000 N   0  0
    1.7138    1.2033    0.0000 N   0  0
    2.1749    2.6315    0.0000 C   0  0
    1.3751    3.8801    0.0000 C   0  0
    2.3406    5.0280    0.0000 O   0  0
    3.7308    4.4644    0.0000 C   0  0
    3.6243    2.9682    0.0000 C   0  0
  2  3  1  0
  3  4  2  0
  4  5  1  0
  5  6  2  0
  6  7  1  0
  2  7  2  0
  8  9  1  0
  9 10  1  0
 10 11  1  0
 11 12  1  0
 12 13  1  0
  8 13  1  0
 14 15  1  0
 11 14  1  0
  2  8  1  0
  1  4  1  0
 16 17  1  0
 17 18  2  0
 18 19  1  0
 19 20  2  0
 20 21  1  0
 16 21  2  0
 22 23  2  0
 22 24  1  0
 17 23  1  0
 18 24  1  0
  1 20  1  0
 24 25  1  0
 25 26  1  0
 26 27  1  0
 27 28  1  0
 28 29  1  0
 29 25  1  0
M  END
> <chembl_id>
CHEMBL3734928

$$$$

  SciTegic01181116592D

 41 47  0  0  0  0            999 V2000
   20.3108  -12.9244    0.0000 C   0  0  2  0  0  0
   19.7613  -13.5358    0.0000 C   0  0
   20.0140  -14.3174    0.0000 C   0  0
   20.8206  -14.4923    0.0000 C   0  0  1  0  0  0
   21.3741  -13.8792    0.0000 C   0  0
   21.1210  -13.0913    0.0000 C   0  0
   20.0530  -12.1407    0.0000 N   0  0
   24.3664   -8.7152    0.0000 C   0  0
   25.0828   -8.3019    0.0000 C   0  0
   25.0800   -7.4713    0.0000 C   0  0
   24.3646   -7.0622    0.0000 C   0  0
   23.6516   -8.3023    0.0000 C   0  0
   23.6528   -7.4734    0.0000 C   0  0
   22.8648   -7.2161    0.0000 N   0  0
   22.3766   -7.8860    0.0000 C   0  0
   22.8628   -8.5572    0.0000 O   0  0
   21.5516   -7.8848    0.0000 N   0  0
   21.1380   -8.5986    0.0000 C   0  0
   20.3148   -8.5941    0.0000 C   0  0
   19.9013   -9.3072    0.0000 C   0  0
   20.3128  -10.0232    0.0000 C   0  0
   21.1421  -10.0218    0.0000 C   0  0
   21.5518   -9.3082    0.0000 C   0  0
   20.0591  -10.8080    0.0000 C   0  0
   20.5392  -11.4721    0.0000 N   0  0
   19.2701  -11.8858    0.0000 C   0  0
   19.2719  -11.0616    0.0000 C   0  0
   18.5602  -10.6498    0.0000 C   0  0
   17.8462  -11.0610    0.0000 N   0  0
   17.8484  -11.8883    0.0000 C   0  0
   18.5607  -12.2964    0.0000 N   0  0
   21.0734  -15.2776    0.0000 N   0  0
   20.5208  -15.8876    0.0000 C   0  0
   20.7706  -16.6701    0.0000 C   0  0
   21.5765  -16.8481    0.0000 N   0  0
   22.1324  -16.2371    0.0000 C   0  0
   21.8823  -15.4482    0.0000 C   0  0
   21.8264  -17.6344    0.0000 C   0  0
   18.5612   -9.8248    0.0000 N   0  0
   24.3662   -9.5402    0.0000 Cl  0  0
   25.7929   -7.0561    0.0000 C   0  0
 19 20  1  0
  9 10  1  0
 20 21  2  0
  3  4  1  0
 21 22  1  0
 10 11  2  0
 22 23  2  0
 23 18  1  0
 11 13  1  0
 21 24  1  0
 24 27  1  0
 12 13  2  0
 26  7  1  0
  7 25  1  0
 25 24  2  0
  4  5  1  0
  5  6  1  0
 26 27  2  0
  1  2  1  0
 27 28  1  0
  1  7  1  1
 28 29  2  0
 29 30  1  0
 13 14  1  0
 30 31  2  0
 31 26  1  0
 14 15  2  0
  4 32  1  1
 32 33  1  0
 15 16  1  0
 16 12  1  0
 12  8  1  0
 15 17  1  0
  1  6  1  0
 32 37  1  0
 33 34  1  0
 34 35  1  0
 35 36  1  0
 36 37  1  0
 17 18  1  0
 35 38  1  0
  8  9  2  0
 28 39  1  0
 18 19  2  0
  8 40  1  0
  2  3  1  0
 10 41  1  0
M  END
> <chembl_id>
CHEMBL1256423

$$$$

  SciTegic02271217242D

 36 39  0  0  0  0            999 V2000
   -0.6794   -2.3152    0.0000 N   0  0
    0.0370   -1.9019    0.0000 C   0  0
    0.0341   -1.0713    0.0000 N   0  0
   -0.6813   -0.6622    0.0000 C   0  0
   -1.3943   -1.9023    0.0000 C   0  0
   -1.3930   -1.0734    0.0000 C   0  0
   -2.1810   -0.8161    0.0000 N   0  0
   -2.6693   -1.4860    0.0000 C   0  0
   -2.1830   -2.1572    0.0000 C   0  0
   -0.6831    0.1628    0.0000 N   0  0
    0.0305    0.5769    0.0000 C   0  0
    0.7428    0.1630    0.0000 C   0  0
    1.4559    0.5764    0.0000 C   0  0
    1.4545    1.4022    0.0000 C   0  0
    0.7341    1.8130    0.0000 C   0  0
    0.0240    1.3973    0.0000 C   0  0
    2.1710    0.1651    0.0000 Cl  0  0
    2.1675    1.8173    0.0000 O   0  0
   -2.4347   -0.0310    0.0000 C   0  0
    2.8834    1.4073    0.0000 C   0  0
    2.8835    0.5823    0.0000 C   0  0
    3.5985    0.1723    0.0000 C   0  0
    4.3125    0.5874    0.0000 C   0  0
    4.3070    1.4167    0.0000 C   0  0
    3.5913    1.8228    0.0000 C   0  0
    5.0185    1.8342    0.0000 C   0  0
    5.7359    1.4268    0.0000 F   0  0
    5.0127    2.6592    0.0000 F   0  0
    5.7292    2.2542    0.0000 F   0  0
   -3.2414    0.1417    0.0000 C   0  0
   -3.4952    0.9267    0.0000 N   0  0
   -4.3019    1.0995    0.0000 C   0  0
   -4.5556    1.8845    0.0000 C   0  0
   -4.8548    0.4873    0.0000 O   0  0
   -5.3623    2.0573    0.0000 O   0  0
   -2.9422    1.5390    0.0000 C   0  0
 13 17  1  0
  7  8  1  0
 14 18  1  0
  8  9  2  0
  7 19  1  0
  9  5  1  0
 18 20  1  0
  4  6  1  0
 20 21  2  0
  4 10  1  0
 21 22  1  0
  5  6  2  0
 22 23  2  0
 10 11  1  0
 23 24  1  0
  1  2  2  0
 24 25  2  0
 25 20  1  0
 11 12  2  0
 24 26  1  0
  5  1  1  0
 26 27  1  0
 12 13  1  0
 26 28  1  0
  2  3  1  0
 26 29  1  0
 13 14  2  0
 19 30  1  0
 30 31  1  0
 14 15  1  0
 31 32  1  0
  3  4  2  0
 32 33  1  0
 15 16  2  0
 32 34  2  0
 16 11  1  0
 33 35  1  0
  6  7  1  0
 31 36  1  0
M  END
> <chembl_id>
CHEMBL1923020

$$$$

  SciTegic09081514182D

 31 32  0  0  0  0            999 V2000
    1.2990   -0.7500    0.0000 C   0  0
    1.2990    0.7500    0.0000 C   0  0
    0.0000    1.5000    0.0000 C   0  0
   -1.2990    0.7500    0.0000 C   0  0
   -1.2990   -0.7500    0.0000 C   0  0
    0.0000   -1.5000    0.0000 C   0  0
   -2.5972   -1.5031    0.0000 C   0  0
   -2.5951   -3.0039    0.0000 C   0  0
   -3.8933   -3.7570    0.0000 C   0  0
   -3.8912   -5.2578    0.0000 C   0  0
   -4.9336   -3.1588    0.0000 O   0  0
   -5.1894   -6.0109    0.0000 C   0  0
   -5.1872   -7.5117    0.0000 C   0  0
   -6.2296   -5.4127    0.0000 O   0  0
   -6.4854   -8.2648    0.0000 C   0  0
   -6.4833   -9.7657    0.0000 C   0  0
   -7.7797  -10.5203    0.0000 C   0  0
   -7.7745  -12.0202    0.0000 C   0  0
   -6.4729  -12.7657    0.0000 C   0  0
   -5.1764  -12.0112    0.0000 C   0  0
   -5.1816  -10.5113    0.0000 C   0  0
    2.5973   -1.5031    0.0000 O   0  0
    2.5972    1.5031    0.0000 O   0  0
   -6.4646  -14.2666    0.0000 O   0  0
   -3.8726  -12.7545    0.0000 O   0  0
    2.5956   -2.7031    0.0000 C   0  0
   -2.8363  -12.1494    0.0000 C   0  0
    2.5955    2.7031    0.0000 C   0  0
   -5.4224  -14.8615    0.0000 C   0  0
    0.0000    2.7000    0.0000 O   0  0
   -8.8116  -12.6238    0.0000 O   0  0
  1  2  2  0
  2  3  1  0
  3  4  2  0
  4  5  1  0
  5  6  2  0
  6  1  1  0
  5  7  1  0
  7  8  2  0
  8  9  1  0
  9 10  2  0
  9 11  1  0
 10 12  1  0
 12 13  1  0
 12 14  2  0
 13 15  2  0
 15 16  1  0
 16 17  2  0
 17 18  1  0
 18 19  2  0
 19 20  1  0
 20 21  2  0
 21 16  1  0
  1 22  1  0
  2 23  1  0
 19 24  1  0
 20 25  1  0
 22 26  1  0
 25 27  1  0
 23 28  1  0
 24 29  1  0
  3 30  1  0
 18 31  1  0
M  END
> <chembl_id>
CHEMBL3402868

$$$$

  SciTegic12171313052D

 33 36  0  0  0  0            999 V2000
   22.6104  -18.3328    0.0000 C   0  0
   22.6092  -19.1601    0.0000 C   0  0
   23.3241  -19.5730    0.0000 C   0  0
   24.0404  -19.1596    0.0000 C   0  0
   24.0376  -18.3291    0.0000 C   0  0
   23.3222  -17.9200    0.0000 C   0  0
   23.3197  -17.0950    0.0000 N   0  0
   24.0330  -16.6804    0.0000 C   0  0
   24.7501  -17.0952    0.0000 N   0  0
   24.7401  -15.4452    0.0000 C   0  0
   24.0303  -15.8616    0.0000 N   0  0
   25.4608  -15.8554    0.0000 C   0  0
   25.4616  -16.6830    0.0000 C   0  0
   26.1748  -17.0938    0.0000 N   0  0
   26.8916  -16.6816    0.0000 C   0  0
   26.8908  -15.8541    0.0000 C   0  0
   26.1731  -15.4387    0.0000 N   0  0
   26.1759  -17.9160    0.0000 C   0  0
   25.4596  -18.3276    0.0000 C   0  0
   25.4589  -19.1518    0.0000 C   0  0
   26.1738  -19.5654    0.0000 C   0  0
   26.8907  -19.1489    0.0000 C   0  0
   26.8879  -18.3260    0.0000 C   0  0
   27.6059  -17.0944    0.0000 O   0  0
   27.6065  -19.5590    0.0000 N   0  0
   27.6090  -20.3840    0.0000 C   0  0
   28.3247  -20.7943    0.0000 O   0  0
   26.8959  -20.7987    0.0000 C   0  0
   26.1801  -20.3885    0.0000 C   0  0
   23.3244  -20.3929    0.0000 N   0  0
   22.6101  -20.8057    0.0000 C   0  0
   22.6104  -21.6307    0.0000 C   0  0
   21.8955  -20.3935    0.0000 O   0  0
  1  2  2  0
  2  3  1  0
  3  4  2  0
  4  5  1  0
  5  6  2  0
  6  1  1  0
  6  7  1  0
  7  8  1  0
  8  9  2  0
  9 13  1  0
 12 10  1  0
 10 11  2  0
 11  8  1  0
 12 13  2  0
 12 17  1  0
 13 14  1  0
 14 15  1  0
 15 16  1  0
 16 17  2  0
 18 19  2  0
 19 20  1  0
 20 21  2  0
 21 22  1  0
 22 23  2  0
 23 18  1  0
 14 18  1  0
 15 24  2  0
 22 25  1  0
 25 26  1  0
 26 27  2  0
 26 28  1  0
 28 29  2  0
  3 30  1  0
 30 31  1  0
 31 32  1  0
 31 33  2  0
M  END
> <chembl_id>
CHEMBL2437466

$$$$

  SciTegic01161211212D

 41 46  0  0  0  0            999 V2000
   13.9519   -9.7882    0.0000 C   0  0
   13.9538  -10.6201    0.0000 C   0  0
   14.6626  -11.0225    0.0000 N   0  0
   14.6588   -9.3718    0.0000 C   0  0
   15.3752   -9.7776    0.0000 C   0  0
   15.3792  -10.6109    0.0000 C   0  0
   16.8029  -10.6042    0.0000 C   0  0
   16.0786   -9.3708    0.0000 N   0  0
   16.0786   -8.5458    0.0000 C   0  0
   16.8101   -9.7944    0.0000 C   0  0
   18.2350   -8.1265    0.0000 C   0  0
   16.7939   -8.1337    0.0000 C   0  0
   17.5154   -8.5458    0.0000 C   0  0
   18.2364   -7.2916    0.0000 C   0  0
   17.5049   -6.8813    0.0000 C   0  0
   16.7861   -7.3071    0.0000 C   0  0
   16.0675   -6.9020    0.0000 C   0  0
   16.0590   -6.0770    0.0000 F   0  0
   15.3573   -7.3218    0.0000 F   0  0
   15.3467   -6.4885    0.0000 F   0  0
   18.9500   -8.5382    0.0000 Cl  0  0
   13.2352   -9.3796    0.0000 C   0  0
   13.2345   -8.5572    0.0000 C   0  0
   12.5186   -8.1487    0.0000 C   0  0
   11.8054   -8.5652    0.0000 C   0  0
   11.8126   -9.3945    0.0000 C   0  0
   12.5290   -9.7992    0.0000 C   0  0
   11.0881   -8.1576    0.0000 C   0  0
   11.0825   -7.3326    0.0000 O   0  0
   10.3765   -8.5750    0.0000 N   0  0
    9.6587   -8.1640    0.0000 C   0  0
    8.9492   -8.5778    0.0000 C   0  0
    8.9506   -9.4032    0.0000 C   0  0
    9.6677   -9.8130    0.0000 C   0  0
   10.3834   -9.3975    0.0000 C   0  0
    8.2374   -9.8178    0.0000 N   0  0
    7.4858   -9.4862    0.0000 C   0  0
    6.9356  -10.1010    0.0000 C   0  0
    7.3503  -10.8142    0.0000 C   0  0
    8.1567  -10.6401    0.0000 C   0  0
   16.0930  -11.0245    0.0000 N   0  0
 17 19  1  0
  3  6  1  0
 17 20  1  0
  5  4  1  0
 11 21  1  0
  4  1  2  0
  1 22  1  0
  5  6  2  0
 22 23  2  0
  5  8  1  0
 23 24  1  0
 24 25  2  0
 25 26  1  0
  7 10  1  0
 26 27  2  0
 27 22  1  0
 10  8  1  0
 25 28  1  0
  8  9  1  0
 28 29  2  0
 12 13  2  0
 28 30  1  0
 30 31  1  0
 13 11  1  0
 11 14  2  0
 14 15  1  0
 15 16  2  0
 16 12  1  0
 30 35  1  0
 31 32  1  0
 32 33  1  0
 33 34  1  0
 34 35  1  0
  9 12  1  0
 33 36  1  0
 36 37  1  0
 16 17  1  0
  1  2  1  0
 17 18  1  0
 37 38  1  0
 38 39  1  0
 39 40  1  0
 40 36  1  0
  2  3  2  0
  6 41  1  0
 41  7  1  0
M  END
> <chembl_id>
CHEMBL1163559

$$$$

  SciTegic09261414462D

 46 50  0  0  0  0            999 V2000
    4.2826  -21.1561    0.0000 C   0  0
    4.2815  -21.9757    0.0000 C   0  0
    4.9895  -22.3846    0.0000 C   0  0
    5.6992  -21.9752    0.0000 C   0  0
    5.6964  -21.1525    0.0000 C   0  0
    4.9878  -20.7473    0.0000 C   0  0
    3.5769  -20.7479    0.0000 N   0  0
    3.5781  -19.9296    0.0000 C   0  0
    2.8711  -19.5212    0.0000 C   0  0
    2.1625  -19.9301    0.0000 N   0  0
    2.1653  -20.7515    0.0000 C   0  0
    2.8729  -21.1561    0.0000 C   0  0
    6.4076  -22.3827    0.0000 N   0  0
    7.1146  -21.9730    0.0000 C   0  0
    7.8196  -22.3809    0.0000 N   0  0
    8.5262  -21.9719    0.0000 C   0  0
    8.5254  -21.1538    0.0000 C   0  0
    7.8121  -20.7465    0.0000 C   0  0
    7.1084  -21.1579    0.0000 N   0  0
    7.8079  -19.9293    0.0000 O   0  0
    8.5135  -19.5171    0.0000 C   0  0
    9.2202  -19.9224    0.0000 C   0  0
    9.9254  -19.5109    0.0000 C   0  0
    9.9216  -18.6928    0.0000 C   0  0
    9.2069  -18.2881    0.0000 C   0  0
    8.5047  -18.7019    0.0000 C   0  0
   10.6349  -19.9162    0.0000 N   0  0
   11.3408  -19.5044    0.0000 C   0  0
   12.0503  -19.9097    0.0000 C   0  0
   11.3370  -18.6872    0.0000 O   0  0
    9.2319  -20.7432    0.0000 Cl  0  0
    4.9893  -23.2018    0.0000 O   0  0
    4.2815  -23.6103    0.0000 C   0  0
    1.4541  -19.5226    0.0000 C   0  0
   12.7562  -19.4978    0.0000 C   0  0
   13.4658  -19.9032    0.0000 N   0  0
   13.4646  -20.7195    0.0000 C   0  0
   14.1701  -21.1247    0.0000 C   0  0
   14.8783  -20.7164    0.0000 N   0  0
   14.8765  -19.8982    0.0000 C   0  0
   14.1665  -19.4885    0.0000 C   0  0
   15.5864  -21.1244    0.0000 C   0  0
   15.5871  -21.9416    0.0000 O   0  0
   16.2937  -20.7152    0.0000 O   0  0
   17.0018  -21.1232    0.0000 C   0  0
   17.7092  -20.7140    0.0000 C   0  0
  1  2  2  0
  2  3  1  0
  3  4  2  0
  4  5  1  0
  5  6  2  0
  6  1  1  0
  7  8  1  0
  8  9  1  0
  9 10  1  0
 10 11  1  0
 11 12  1  0
 12  7  1  0
  1  7  1  0
  4 13  1  0
 13 14  1  0
 14 15  2  0
 15 16  1  0
 16 17  2  0
 17 18  1  0
 18 19  2  0
 19 14  1  0
 18 20  1  0
 20 21  1  0
 21 22  2  0
 22 23  1  0
 23 24  2  0
 24 25  1  0
 25 26  2  0
 26 21  1  0
 23 27  1  0
 27 28  1  0
 28 29  1  0
 28 30  2  0
 17 31  1  0
  3 32  1  0
 32 33  1  0
 10 34  1  0
 29 35  1  0
 35 36  1  0
 36 37  1  0
 36 41  1  0
 37 38  1  0
 38 39  1  0
 39 40  1  0
 40 41  1  0
 39 42  1  0
 42 43  2  0
 42 44  1  0
 44 45  1  0
 45 46  1  0
M  END
> <chembl_id>
CHEMBL3237935

$$$$

  SciTegic12091611202D

 31 34  0  0  0  0            999 V2000
   -4.9282   -3.7385    0.0000 C   0  0
    1.5604   -6.0143    0.0000 C   0  0
   -2.3155    0.7475    0.0000 N   0  0
   -2.3155   -0.7475    0.0000 C   0  0
    1.7138    1.2033    0.0000 N   0  0
   -1.0028    1.5132    0.0000 C   0  0
    1.7138   -1.2033    0.0000 N   0  0
   -2.3350   -5.2470    0.0000 C   0  0
   -1.0449   -7.5017    0.0000 C   0  0
   -3.6187   -1.4919    0.0000 N   0  0
    2.8477   -8.2736    0.0000 O   0  0
    1.5531   -7.5143    0.0000 C   0  0  1  0  0  0
    0.2917   -0.7475    0.0000 C   0  0
    2.5889    0.0182    0.0000 C   0  0
   -2.3301   -3.7470    0.0000 N   0  0
    0.2650   -5.2580    0.0000 C   0  0
   -3.6267   -2.9927    0.0000 C   0  0
   -4.9331   -5.2385    0.0000 C   0  0
   -1.0028   -1.5132    0.0000 C   0  0
   -3.6365   -5.9928    0.0000 N   0  0
    0.2505   -8.2579    0.0000 C   0  0
    0.2917    0.7475    0.0000 C   0  0
   -1.0378   -6.0016    0.0000 N   0  0
    2.1855   -2.6254    0.0000 C   0  0
    3.3606   -2.8684    0.0000 C   0  0
    1.3877   -3.5218    0.0000 C   0  0
    4.0872    0.0382    0.0000 C   0  0
    2.5821   -6.6436    0.0000 F   0  0
    4.6738    1.0851    0.0000 O   0  0
    2.8401   -9.4736    0.0000 C   0  0
    1.5380   -4.8145    0.0000 F   0  0
 12 11  1  1
 16  2  1  0
 23 16  1  0
 10  4  1  0
  4  3  1  0
 13  7  1  0
 17  1  1  0
 14  5  2  0
  2 12  1  0
 15 17  2  0
 22  5  1  0
 14  7  1  0
 21  9  1  0
 10 17  1  0
  6 22  1  0
 22 13  2  0
  6  3  2  0
 13 19  1  0
 18 20  1  0
 19  4  2  0
  8 23  1  0
  1 18  2  0
 23  9  1  0
  8 20  2  0
  8 15  1  0
 12 21  1  0
  7 24  1  0
 24 25  1  0
 24 26  1  0
 14 27  1  0
  2 28  1  0
 27 29  1  0
 11 30  1  0
  2 31  1  0
M  END
> <chembl_id>
CHEMBL3735474

$$$$

  CDK    9/16/09,9:58

 24 26  0  0  0  0  0  0  0  0999 V2000
   19.2539  -13.1860    0.0000 N   0  0  0  0  0  0  0  0  0  0  0  0
   19.9703  -12.7727    0.0000 C   0  0  0  0  0  0  0  0  0  0  0  0
   19.9675  -11.9422    0.0000 N   0  0  0  0  0  0  0  0  0  0  0  0
   19.2521  -11.5330    0.0000 C   0  0  0  0  0  0  0  0  0  0  0  0
   18.5391  -12.7732    0.0000 C   0  0  0  0  0  0  0  0  0  0  0  0
   18.5414  -11.9476    0.0000 C   0  0  0  0  0  0  0  0  0  0  0  0
   17.8287  -11.5346    0.0000 C   0  0  0  0  0  0  0  0  0  0  0  0
   17.8282  -13.1840    0.0000 C   0  0  0  0  0  0  0  0  0  0  0  0
   19.2486  -10.7080    0.0000 N   0  0  0  0  0  0  0  0  0  0  0  0
   19.9613  -10.2925    0.0000 C   0  0  0  0  0  0  0  0  0  0  0  0
   20.6806  -10.7054    0.0000 C   0  0  0  0  0  0  0  0  0  0  0  0
   21.3928  -10.2906    0.0000 C   0  0  0  0  0  0  0  0  0  0  0  0
   21.3897   -9.4647    0.0000 C   0  0  0  0  0  0  0  0  0  0  0  0
   20.6684   -9.0555    0.0000 C   0  0  0  0  0  0  0  0  0  0  0  0
   19.9592   -9.4727    0.0000 C   0  0  0  0  0  0  0  0  0  0  0  0
   22.1088  -10.7004    0.0000 Br  0  0  0  0  0  0  0  0  0  0  0  0
   17.1176  -12.7792    0.0000 C   0  0  0  0  0  0  0  0  0  0  0  0
   17.1130  -11.9423    0.0000 C   0  0  0  0  0  0  0  0  0  0  0  0
   16.3986  -11.5297    0.0000 N   0  0  0  0  0  0  0  0  0  0  0  0
   15.6841  -11.9421    0.0000 C   0  0  0  0  0  0  0  0  0  0  0  0
   15.6839  -12.7671    0.0000 O   0  0  0  0  0  0  0  0  0  0  0  0
   14.9696  -11.5295    0.0000 C   0  0  0  0  0  0  0  0  0  0  0  0
   14.2500  -11.1167    0.0000 C   0  0  0  0  0  0  0  0  0  0  0  0
   13.5344  -10.7061    0.0000 C   0  0  0  0  0  0  0  0  0  0  0  0
 10 11  2  0  0  0  0 
  5  1  1  0  0  0  0 
 11 12  1  0  0  0  0 
  5  6  1  0  0  0  0 
 12 13  2  0  0  0  0 
  2  3  1  0  0  0  0 
 13 14  1  0  0  0  0 
  6  7  2  0  0  0  0 
 14 15  2  0  0  0  0 
 15 10  1  0  0  0  0 
  7 18  1  0  0  0  0 
 12 16  1  0  0  0  0 
 17 18  2  0  0  0  0 
 17  8  1  0  0  0  0 
  8  5  2  0  0  0  0 
 18 19  1  0  0  0  0 
  3  4  2  0  0  0  0 
 19 20  1  0  0  0  0 
  4  9  1  0  0  0  0 
 20 21  2  0  0  0  0 
  4  6  1  0  0  0  0 
 20 22  1  0  0  0  0 
  9 10  1  0  0  0  0 
 22 23  3  0  0  0  0 
  1  2  2  0  0  0  0 
 23 24  1  0  0  0  0 
M  END
> <chembl_id>
CHEMBL91867

$$$$

  SciTegic12201610342D

 39 42  0  0  0  0            999 V2000
   17.4088   -1.9033    0.0000 C   0  0
   18.8877   -2.1589    0.0000 C   0  0
   19.6566   -1.2376    0.0000 C   0  0
   16.9950   -0.7769    0.0000 O   0  0
   16.4473   -3.0556    0.0000 N   0  0
   14.9684   -2.7999    0.0000 C   0  0
   14.0057   -3.9503    0.0000 C   0  0
   12.5281   -3.6918    0.0000 C   0  0
   12.0133   -2.2828    0.0000 C   0  0
   12.9760   -1.1325    0.0000 C   0  0
   14.4535   -1.3911    0.0000 C   0  0
   11.5625   -4.8408    0.0000 O   0  0
    8.0979   -2.9056    0.0000 C   0  0
    9.5745   -3.1694    0.0000 N   0  0
   10.0845   -4.5800    0.0000 C   0  0
    9.1179   -5.7270    0.0000 C   0  0
    7.6412   -5.4633    0.0000 C   0  0
    7.1312   -4.0527    0.0000 N   0  0
    9.6252   -7.1395    0.0000 S   0  0
    8.8506   -8.0559    0.0000 C   0  0
    7.5847   -1.4952    0.0000 N   0  0
    6.1069   -1.2335    0.0000 C   0  0
    5.5920    0.1754    0.0000 C   0  0
    4.1145    0.4339    0.0000 C   0  0
    3.1484   -0.7186    0.0000 C   0  0
    3.6667   -2.1252    0.0000 C   0  0
    5.1442   -2.3838    0.0000 C   0  0
    6.5529    1.3283    0.0000 O   0  0
    6.1394    2.4548    0.0000 C   0  0
    1.6852   -0.3846    0.0000 N   0  0
    1.3514    1.0778    0.0000 C   0  0
    0.0000    1.7286    0.0000 C   0  0
   -1.3515    1.0777    0.0000 N   0  0
   -1.6852   -0.3847    0.0000 C   0  0
   -0.7500   -1.5574    0.0000 C   0  0
    0.7500   -1.5574    0.0000 C   0  0
   -2.5283    2.0123    0.0000 C   0  0
   -3.6447    1.5723    0.0000 O   0  0
   -2.3515    3.1992    0.0000 C   0  0
  1  2  1  0
  2  3  2  0
  1  4  2  0
  1  5  1  0
  6  7  1  0
  7  8  2  0
  8  9  1  0
  9 10  2  0
 10 11  1  0
  6 11  2  0
 13 14  1  0
 14 15  2  0
 15 16  1  0
 16 17  2  0
 17 18  1  0
 13 18  2  0
 19 20  1  0
 16 19  1  0
 22 23  1  0
 23 24  2  0
 24 25  1  0
 25 26  2  0
 26 27  1  0
 22 27  2  0
 28 29  1  0
 23 28  1  0
 30 31  1  0
 31 32  1  0
 32 33  1  0
 33 34  1  0
 34 35  1  0
 35 36  1  0
 30 36  1  0
 37 38  2  0
 37 39  1  0
 33 37  1  0
 25 30  1  0
 21 22  1  0
 13 21  1  0
 12 15  1  0
  8 12  1  0
  5  6  1  0
M  END
> <chembl_id>
CHEMBL3799864

$$$$

  SciTegic06051313552D

 24 27  0  0  0  0            999 V2000
    8.3686  -12.4477    0.0000 C   0  0
    8.3675  -13.2672    0.0000 C   0  0
    9.0755  -13.6762    0.0000 C   0  0
    9.7852  -13.2667    0.0000 C   0  0
    9.7824  -12.4440    0.0000 C   0  0
    9.0737  -12.0388    0.0000 C   0  0
   10.4630  -11.9919    0.0000 C   0  0
   11.2303  -12.2731    0.0000 C   0  0
   11.7348  -11.6303    0.0000 C   0  0
   11.2789  -10.9523    0.0000 N   0  0
   10.4934  -11.1753    0.0000 N   0  0
   11.6845  -10.2429    0.0000 C   0  0
   12.5017  -10.2394    0.0000 N   0  0
   11.2729   -9.5369    0.0000 S   0  0
   12.5493  -11.6604    0.0000 C   0  0
   12.9310  -12.3842    0.0000 C   0  0
   13.7953  -10.9971    0.0000 C   0  0
   12.9807  -10.9703    0.0000 C   0  0
   14.1820  -11.7218    0.0000 C   0  0
   13.7464  -12.4123    0.0000 C   0  0
   14.1265  -13.1327    0.0000 C   0  0
   14.9421  -13.1638    0.0000 C   0  0
   15.3760  -12.4686    0.0000 C   0  0
   14.9934  -11.7510    0.0000 C   0  0
  1  2  2  0
  2  3  1  0
  3  4  2  0
  4  5  1  0
  5  6  2  0
  6  1  1  0
  7  8  1  0
  8  9  1  0
  9 10  1  0
 10 11  1  0
 11  7  2  0
  5  7  1  0
 10 12  1  0
 12 13  1  0
 12 14  2  0
 15 16  2  0
 16 20  1  0
 19 17  1  0
 17 18  2  0
 18 15  1  0
  9 15  1  0
 19 20  1  0
 20 21  2  0
 21 22  1  0
 22 23  2  0
 23 24  1  0
 24 19  2  0
M  END
> <chembl_id>
CHEMBL2325109

$$$$

  SciTegic06051313552D

 29 33  0  0  0  0            999 V2000
   17.7044  -31.3917    0.0000 C   0  0
   17.7032  -32.2112    0.0000 C   0  0
   18.4113  -32.6202    0.0000 C   0  0
   19.1210  -32.2107    0.0000 C   0  0
   19.1182  -31.3880    0.0000 C   0  0
   18.4095  -30.9828    0.0000 C   0  0
   19.7988  -30.9359    0.0000 C   0  0
   20.5661  -31.2171    0.0000 C   0  0
   21.0706  -30.5742    0.0000 C   0  0
   20.6147  -29.8963    0.0000 N   0  0
   19.8292  -30.1193    0.0000 N   0  0
   21.0203  -29.1868    0.0000 C   0  0
   21.8851  -30.6044    0.0000 C   0  0
   23.1311  -29.9411    0.0000 C   0  0
   22.3165  -29.9143    0.0000 C   0  0
   23.5178  -30.6658    0.0000 C   0  0
   21.8353  -29.1864    0.0000 C   0  0
   22.2408  -28.4778    0.0000 C   0  0
   21.8291  -27.7708    0.0000 C   0  0
   21.0077  -27.7770    0.0000 C   0  0
   20.6059  -28.4862    0.0000 C   0  0
   23.0822  -31.3563    0.0000 C   0  0
   22.2671  -31.3253    0.0000 C   0  0
   21.8346  -32.0146    0.0000 C   0  0
   22.2160  -32.7353    0.0000 C   0  0
   23.0343  -32.7624    0.0000 C   0  0
   23.4631  -32.0724    0.0000 C   0  0
   16.9952  -32.6192    0.0000 Cl  0  0
   18.4111  -33.4374    0.0000 Cl  0  0
  1  2  2  0
  2  3  1  0
  3  4  2  0
  4  5  1  0
  5  6  2  0
  6  1  1  0
  7  8  1  0
  8  9  1  0
  9 10  1  0
 10 11  1  0
 11  7  2  0
  5  7  1  0
 10 12  1  0
 13 23  2  0
 16 14  1  0
 14 15  2  0
 15 13  1  0
  9 13  1  0
 16 22  2  0
 12 17  2  0
 17 18  1  0
 18 19  2  0
 19 20  1  0
 20 21  2  0
 21 12  1  0
 22 23  1  0
 23 24  1  0
 24 25  2  0
 25 26  1  0
 26 27  2  0
 27 22  1  0
  2 28  1  0
  3 29  1  0
M  END
> <chembl_id>
CHEMBL2325094

$$$$

  SciTegic10311316212D

 47 52  0  0  0  0            999 V2000
   34.4252   -1.1102    0.0000 O   0  0
   34.8379   -1.8201    0.0000 S   0  0
   35.2464   -1.1077    0.0000 O   0  0
   26.3386   -3.2605    0.0000 C   0  0
   26.3374   -4.0800    0.0000 C   0  0
   27.0455   -4.4890    0.0000 C   0  0
   27.7551   -4.0795    0.0000 C   0  0
   27.7523   -3.2569    0.0000 C   0  0
   27.0437   -2.8516    0.0000 C   0  0
   25.6270   -2.8477    0.0000 N   0  0
   25.6287   -2.0295    0.0000 C   0  0
   24.9250   -1.6212    0.0000 C   0  0
   24.2150   -2.0265    0.0000 N   0  0
   24.2132   -2.8446    0.0000 C   0  0
   24.9215   -3.2575    0.0000 C   0  0
   27.0453   -5.3062    0.0000 O   0  0
   26.3374   -5.7146    0.0000 C   0  0
   28.4635   -4.4870    0.0000 N   0  0
   29.1705   -4.0773    0.0000 C   0  0
   29.8756   -4.4852    0.0000 N   0  0
   30.5821   -4.0762    0.0000 C   0  0
   30.5813   -3.2581    0.0000 C   0  0
   29.8680   -2.8508    0.0000 C   0  0
   29.1643   -3.2622    0.0000 N   0  0
   29.8638   -2.0337    0.0000 O   0  0
   30.5694   -1.6215    0.0000 C   0  0
   31.2761   -2.0268    0.0000 C   0  0
   31.9813   -1.6152    0.0000 C   0  0
   31.9775   -0.7972    0.0000 C   0  0
   31.2628   -0.3924    0.0000 C   0  0
   30.5606   -0.8062    0.0000 C   0  0
   31.2878   -2.8475    0.0000 Cl  0  0
   23.5087   -1.6154    0.0000 C   0  0
   32.6826   -0.3840    0.0000 C   0  0
   33.3929   -0.7881    0.0000 O   0  0
   33.3982   -1.6053    0.0000 C   0  0
   32.7406   -2.0892    0.0000 N   0  0
   32.9981   -2.8647    0.0000 O   0  0
   33.8154   -2.8595    0.0000 N   0  3
   34.0628   -2.0807    0.0000 C   0  0
   34.3000   -3.5175    0.0000 O   0  5
   35.4493   -2.3653    0.0000 C   0  0
   35.2816   -3.1658    0.0000 C   0  0
   35.8919   -3.7081    0.0000 C   0  0
   36.6683   -3.4503    0.0000 C   0  0
   36.8309   -2.6451    0.0000 C   0  0
   36.2193   -2.1063    0.0000 C   0  0
  2  1  2  0
  3  2  2  0
  4  5  2  0
  5  6  1  0
  6  7  2  0
  7  8  1  0
  8  9  2  0
  9  4  1  0
 10 11  1  0
 10 15  1  0
 11 12  1  0
 12 13  1  0
 13 14  1  0
 14 15  1  0
  4 10  1  0
  6 16  1  0
 16 17  1  0
  7 18  1  0
 18 19  1  0
 19 20  2  0
 20 21  1  0
 21 22  2  0
 22 23  1  0
 23 24  2  0
 24 19  1  0
 23 25  1  0
 25 26  1  0
 26 27  2  0
 27 28  1  0
 28 29  2  0
 29 30  1  0
 30 31  2  0
 31 26  1  0
 22 32  1  0
 13 33  1  0
 29 34  1  0
 34 35  1  0
 35 36  1  0
 36 37  2  0
 37 38  1  0
 38 39  1  0
 39 40  2  0
 40 36  1  0
 39 41  1  0
 40  2  1  0
  2 42  1  0
 42 43  2  0
 43 44  1  0
 44 45  2  0
 45 46  1  0
 46 47  2  0
 47 42  1  0
M  CHG  2  39   1  41  -1
M  END
> <chembl_id>
CHEMBL2408825

$$$$

  SciTegic12171313052D

 38 42  0  0  0  0            999 V2000
   28.6127  -17.6108    0.0000 C   0  0
   28.6115  -18.4304    0.0000 C   0  0
   29.3196  -18.8393    0.0000 C   0  0
   30.0292  -18.4299    0.0000 C   0  0
   30.0264  -17.6072    0.0000 C   0  0
   29.3178  -17.2020    0.0000 C   0  0
   29.3153  -16.3848    0.0000 N   0  0
   30.0218  -15.9741    0.0000 C   0  0
   30.7322  -16.3850    0.0000 N   0  0
   30.7223  -14.7506    0.0000 C   0  0
   30.0192  -15.1630    0.0000 N   0  0
   31.4362  -15.1569    0.0000 C   0  0
   31.4370  -15.9767    0.0000 C   0  0
   32.1434  -16.3836    0.0000 N   0  0
   32.8535  -15.9753    0.0000 C   0  0
   32.8527  -15.1556    0.0000 C   0  0
   32.1418  -14.7441    0.0000 N   0  0
   32.1445  -17.1981    0.0000 C   0  0
   31.4350  -17.6058    0.0000 C   0  0
   31.4343  -18.4222    0.0000 C   0  0
   32.1424  -18.8319    0.0000 C   0  0
   32.8526  -18.4192    0.0000 C   0  0
   32.8498  -17.6041    0.0000 C   0  0
   33.5610  -16.3842    0.0000 O   0  0
   32.1431  -19.6491    0.0000 N   0  0
   32.8512  -20.0571    0.0000 C   0  0
   32.8519  -20.8743    0.0000 O   0  0
   33.5585  -19.6478    0.0000 C   0  0
   34.2666  -20.0558    0.0000 C   0  0
   29.3199  -19.6516    0.0000 N   0  0
   28.6103  -20.0588    0.0000 C   0  0
   28.6081  -20.8724    0.0000 C   0  0
   29.3139  -21.2850    0.0000 N   0  0
   30.0236  -20.8778    0.0000 C   0  0
   30.0274  -20.0580    0.0000 C   0  0
   29.3106  -22.1022    0.0000 C   0  0
   27.9049  -17.2024    0.0000 O   0  0
   27.9047  -16.3852    0.0000 C   0  0
  1  2  2  0
  2  3  1  0
  3  4  2  0
  4  5  1  0
  5  6  2  0
  6  1  1  0
  6  7  1  0
  7  8  1  0
  8  9  2  0
  9 13  1  0
 12 10  1  0
 10 11  2  0
 11  8  1  0
 12 13  2  0
 12 17  1  0
 13 14  1  0
 14 15  1  0
 15 16  1  0
 16 17  2  0
 18 19  2  0
 19 20  1  0
 20 21  2  0
 21 22  1  0
 22 23  2  0
 23 18  1  0
 14 18  1  0
 15 24  2  0
 21 25  1  0
 25 26  1  0
 26 27  2  0
 26 28  1  0
 28 29  2  0
 30 31  1  0
 30 35  1  0
 31 32  1  0
 32 33  1  0
 33 34  1  0
 34 35  1  0
  3 30  1  0
 33 36  1  0
  1 37  1  0
 37 38  1  0
M  END
> <chembl_id>
CHEMBL2437468

$$$$

  SciTegic12171313052D

 35 39  0  0  0  0            999 V2000
    0.7250  -16.8927    0.0000 C   0  0
    0.7238  -17.7122    0.0000 C   0  0
    1.4319  -18.1212    0.0000 C   0  0
    2.1415  -17.7118    0.0000 C   0  0
    2.1387  -16.8891    0.0000 C   0  0
    1.4301  -16.4838    0.0000 C   0  0
    1.4276  -15.6667    0.0000 N   0  0
    2.1341  -15.2560    0.0000 C   0  0
    2.8445  -15.6669    0.0000 N   0  0
    2.8346  -14.0325    0.0000 C   0  0
    2.1315  -14.4448    0.0000 N   0  0
    3.5485  -14.4388    0.0000 C   0  0
    3.5493  -15.2585    0.0000 C   0  0
    4.2557  -15.6654    0.0000 N   0  0
    4.9658  -15.2572    0.0000 C   0  0
    4.9650  -14.4374    0.0000 C   0  0
    4.2541  -14.0260    0.0000 N   0  0
    4.2568  -16.4799    0.0000 C   0  0
    3.5473  -16.8876    0.0000 C   0  0
    3.5466  -17.7041    0.0000 C   0  0
    4.2547  -18.1138    0.0000 C   0  0
    4.9649  -17.7011    0.0000 C   0  0
    4.9621  -16.8860    0.0000 C   0  0
    5.6734  -15.6661    0.0000 O   0  0
    5.6739  -18.1075    0.0000 N   0  0
    5.6764  -18.9247    0.0000 C   0  0
    6.3854  -19.3311    0.0000 O   0  0
    4.9700  -19.3355    0.0000 C   0  0
    4.2610  -18.9291    0.0000 C   0  0
    1.4322  -18.9335    0.0000 N   0  0
    0.7226  -19.3407    0.0000 C   0  0
    0.7205  -20.1543    0.0000 C   0  0
    1.4263  -20.5669    0.0000 C   0  0
    2.1359  -20.1597    0.0000 C   0  0
    2.1397  -19.3399    0.0000 C   0  0
  1  2  2  0
  2  3  1  0
  3  4  2  0
  4  5  1  0
  5  6  2  0
  6  1  1  0
  6  7  1  0
  7  8  1  0
  8  9  2  0
  9 13  1  0
 12 10  1  0
 10 11  2  0
 11  8  1  0
 12 13  2  0
 12 17  1  0
 13 14  1  0
 14 15  1  0
 15 16  1  0
 16 17  2  0
 18 19  2  0
 19 20  1  0
 20 21  2  0
 21 22  1  0
 22 23  2  0
 23 18  1  0
 14 18  1  0
 15 24  2  0
 22 25  1  0
 25 26  1  0
 26 27  2  0
 26 28  1  0
 28 29  2  0
 30 31  1  0
 30 35  1  0
 31 32  1  0
 32 33  1  0
 33 34  1  0
 34 35  1  0
  3 30  1  0
M  END
> <chembl_id>
CHEMBL2437463

$$$$

  SciTegic12201611502D

 29 32  0  0  0  0            999 V2000
   -7.3414    2.1476    0.0000 C   0  0
   -6.0489    2.9104    0.0000 C   0  0
   -6.0632    4.4104    0.0000 C   0  0
   -4.7714    5.1728    0.0000 C   0  0
   -3.4653    4.4352    0.0000 C   0  0
   -3.4508    2.9353    0.0000 C   0  0
   -4.7427    2.1729    0.0000 C   0  0
   -8.3748    1.5377    0.0000 N   0  0
   -2.1454    2.1947    0.0000 N   0  0
   -2.1332   -2.2973    0.0000 N   0  0
   -3.4277   -1.5498    0.0000 C   0  0
   -3.4277    0.0000    0.0000 N   0  0
   -2.1332    0.6928    0.0000 C   0  0
   -0.8205    0.0000    0.0000 C   0  0
    0.4558    0.6928    0.0000 C   0  0
    1.7503    0.0000    0.0000 C   0  0
    1.7503   -1.5498    0.0000 C   0  0
    0.4558   -2.2973    0.0000 C   0  0
   -0.8205   -1.5498    0.0000 C   0  0
    0.4558    2.1879    0.0000 O   0  0
    3.0631    0.6928    0.0000 O   0  0
    3.0631    2.1879    0.0000 C   0  0
    1.7503    2.9537    0.0000 C   0  0
    3.0410   -2.3153    0.0000 O   0  0
    3.0239   -3.8160    0.0000 C   0  0
    4.3146   -4.5820    0.0000 C   0  0
    4.2976   -6.0827    0.0000 O   0  0
    5.3296   -6.6951    0.0000 C   0  0
   -7.1082    5.0004    0.0000 F   0  0
  1  2  1  0
  2  3  1  0
  3  4  2  0
  4  5  1  0
  5  6  2  0
  6  7  1  0
  2  7  2  0
  1  8  3  0
 10 11  1  0
 11 12  2  0
 12 13  1  0
 13 14  2  0
 14 15  1  0
 15 16  2  0
 16 17  1  0
 17 18  2  0
 18 19  1  0
 10 19  2  0
 14 19  1  0
 21 22  1  0
 22 23  1  0
 20 23  1  0
 15 20  1  0
 16 21  1  0
 25 26  1  0
 24 25  1  0
 27 28  1  0
 26 27  1  0
 17 24  1  0
  9 13  1  0
  6  9  1  0
  3 29  1  0
M  END
> <chembl_id>
CHEMBL3805280

$$$$

  SciTegic04191617032D

 27 30  0  0  0  0            999 V2000
   -2.6111    0.7486    0.0000 C   0  0
   -2.6111   -0.7486    0.0000 C   0  0
   -1.2964   -1.4973    0.0000 C   0  0
   -1.2964    1.4973    0.0000 C   0  0
    0.0000    0.7486    0.0000 C   0  0
    0.0000   -0.7486    0.0000 C   0  0
    1.2964   -1.4973    0.0000 N   0  0
    2.5929   -0.7486    0.0000 C   0  0
    2.5929    0.7486    0.0000 N   0  0
    1.2964    1.4973    0.0000 C   0  0
    1.2995    2.9981    0.0000 N   0  0
    2.6003    3.7467    0.0000 C   0  0
    2.7434    5.2271    0.0000 C   0  0
    4.2117    5.5338    0.0000 C   0  0
    4.9571    4.2322    0.0000 N   0  0
    3.9496    3.1210    0.0000 N   0  0
    3.8926   -1.4990    0.0000 C   0  0
    5.1929   -0.7510    0.0000 C   0  0
    6.4908   -1.5029    0.0000 C   0  0
    6.4885   -3.0029    0.0000 C   0  0
    5.1883   -3.7510    0.0000 C   0  0
    3.8904   -2.9990    0.0000 C   0  0
    7.7932   -0.7572    0.0000 N   0  0
    9.0907   -1.5114    0.0000 C   0  0
   10.3932   -0.7656    0.0000 C   0  0
   11.4306   -1.3687    0.0000 C   0  0
    9.0868   -2.7114    0.0000 O   0  0
  1  2  2  0
  2  3  1  0
  3  6  2  0
  5  4  2  0
  4  1  1  0
  5  6  1  0
  6  7  1  0
  7  8  2  0
  8  9  1  0
  9 10  2  0
 10  5  1  0
 10 11  1  0
 11 12  1  0
 12 13  1  0
 13 14  2  0
 14 15  1  0
 15 16  1  0
 16 12  2  0
  8 17  1  0
 17 18  2  0
 18 19  1  0
 19 20  2  0
 20 21  1  0
 21 22  2  0
 22 17  1  0
 19 23  1  0
 23 24  1  0
 24 25  1  0
 25 26  2  0
 24 27  2  0
M  END
> <chembl_id>
CHEMBL3604912

$$$$

  SciTegic04191617032D

 27 30  0  0  0  0            999 V2000
   -2.6111    0.7486    0.0000 C   0  0
   -2.6111   -0.7486    0.0000 C   0  0
   -1.2964   -1.4973    0.0000 C   0  0
   -1.2964    1.4973    0.0000 C   0  0
    0.0000    0.7486    0.0000 C   0  0
    0.0000   -0.7486    0.0000 C   0  0
    1.2964   -1.4973    0.0000 N   0  0
    2.5929   -0.7486    0.0000 C   0  0
    2.5929    0.7486    0.0000 N   0  0
    1.2964    1.4973    0.0000 C   0  0
    1.2995    2.9981    0.0000 N   0  0
    2.6003    3.7467    0.0000 C   0  0
    2.7434    5.2271    0.0000 C   0  0
    4.2117    5.5338    0.0000 C   0  0
    4.9571    4.2322    0.0000 N   0  0
    3.9496    3.1210    0.0000 N   0  0
    3.8926   -1.4990    0.0000 C   0  0
    5.1929   -0.7510    0.0000 C   0  0
    6.4908   -1.5029    0.0000 C   0  0
    6.4885   -3.0029    0.0000 C   0  0
    5.1883   -3.7510    0.0000 C   0  0
    3.8904   -2.9990    0.0000 C   0  0
    7.7856   -3.7580    0.0000 N   0  0
    7.7811   -5.2588    0.0000 C   0  0
    9.0782   -6.0139    0.0000 C   0  0
    9.0747   -7.2139    0.0000 C   0  0
    6.7400   -5.8554    0.0000 O   0  0
  1  2  2  0
  2  3  1  0
  3  6  2  0
  5  4  2  0
  4  1  1  0
  5  6  1  0
  6  7  1  0
  7  8  2  0
  8  9  1  0
  9 10  2  0
 10  5  1  0
 10 11  1  0
 11 12  1  0
 12 13  1  0
 13 14  2  0
 14 15  1  0
 15 16  1  0
 16 12  2  0
  8 17  1  0
 17 18  2  0
 18 19  1  0
 19 20  2  0
 20 21  1  0
 21 22  2  0
 22 17  1  0
 20 23  1  0
 23 24  1  0
 24 25  1  0
 25 26  2  0
 24 27  2  0
M  END
> <chembl_id>
CHEMBL3604913

$$$$

  SciTegic01181116592D

 34 38  0  0  0  0            999 V2000
   18.0795   -9.8493    0.0000 N   0  0
   18.7963   -9.4357    0.0000 C   0  0
   18.7934   -8.6048    0.0000 N   0  0
   18.0777   -8.1954    0.0000 C   0  0
   18.0752   -7.3700    0.0000 N   0  0
   17.3643   -9.4362    0.0000 C   0  0
   17.3610   -8.6115    0.0000 C   0  0
   16.5810   -9.6941    0.0000 S   0  0
   16.0935   -9.0290    0.0000 C   0  0
   16.5754   -8.3614    0.0000 C   0  0
   16.2401   -7.6146    0.0000 C   0  0
   15.4219   -7.5288    0.0000 C   0  0
   14.9401   -8.1958    0.0000 N   0  0
   15.2763   -8.9495    0.0000 C   0  0
   18.7888   -6.9551    0.0000 C   0  0  1  0  0  0
   19.5048   -7.3657    0.0000 C   0  0
   18.7864   -6.1297    0.0000 C   0  0
   19.5051   -8.1884    0.0000 C   0  0
   20.2204   -8.5989    0.0000 C   0  0
   20.9349   -8.1840    0.0000 C   0  0
   20.9298   -7.3544    0.0000 C   0  0
   20.2140   -6.9476    0.0000 C   0  0
   14.1112   -8.1957    0.0000 C   0  0
   13.6984   -8.9105    0.0000 O   0  0
   13.6985   -7.4808    0.0000 C   0  0
   14.1113   -6.7660    0.0000 C   0  0
   19.4999   -5.7149    0.0000 O   0  0
   13.6987   -6.0512    0.0000 C   0  0
   14.1115   -5.3364    0.0000 N   0  0
   14.9374   -5.3388    0.0000 C   0  0
   15.3500   -4.6282    0.0000 C   0  0
   14.9409   -3.9108    0.0000 O   0  0
   14.1146   -3.9088    0.0000 C   0  0
   13.6973   -4.6240    0.0000 C   0  0
 15 16  1  0
  7 10  1  0
 15 17  1  6
  9  8  1  0
 16 18  2  0
  8  6  1  0
 18 19  1  0
  9 10  2  0
 19 20  2  0
  3  4  2  0
 20 21  1  0
  4  7  1  0
 21 22  2  0
 22 16  1  0
  1  2  2  0
 13 23  1  0
  4  5  1  0
 23 24  2  0
  6  7  2  0
 23 25  1  0
  6  1  1  0
 25 26  2  0
  9 14  1  0
 17 27  1  0
 10 11  1  0
 26 28  1  0
 11 12  1  0
 28 29  1  0
 29 30  1  0
 12 13  1  0
 13 14  1  0
  2  3  1  0
  5 15  1  0
 29 34  1  0
 30 31  1  0
 31 32  1  0
 32 33  1  0
 33 34  1  0
M  END
> <chembl_id>
CHEMBL1272325

$$$$

  SciTegic06051313552D

 24 27  0  0  0  0            999 V2000
    0.9602   -3.4132    0.0000 C   0  0
    0.9591   -4.2327    0.0000 C   0  0
    1.6671   -4.6417    0.0000 C   0  0
    2.3768   -4.2322    0.0000 C   0  0
    2.3740   -3.4095    0.0000 C   0  0
    1.6653   -3.0043    0.0000 C   0  0
    3.0546   -2.9574    0.0000 C   0  0
    3.8219   -3.2386    0.0000 C   0  0
    4.3265   -2.5958    0.0000 C   0  0
    3.8705   -1.9178    0.0000 N   0  0
    3.0850   -2.1408    0.0000 N   0  0
    4.2761   -1.2084    0.0000 C   0  0
    5.0933   -1.2049    0.0000 N   0  0
    3.8645   -0.5024    0.0000 S   0  0
    5.1409   -2.6259    0.0000 C   0  0
    6.3870   -1.9626    0.0000 C   0  0
    5.5723   -1.9358    0.0000 C   0  0
    6.7736   -2.6873    0.0000 C   0  0
    6.3380   -3.3778    0.0000 C   0  0
    5.5230   -3.3468    0.0000 C   0  0
    5.0905   -4.0361    0.0000 C   0  0
    5.4719   -4.7568    0.0000 C   0  0
    6.2901   -4.7839    0.0000 C   0  0
    6.7190   -4.0939    0.0000 C   0  0
  1  2  2  0
  2  3  1  0
  3  4  2  0
  4  5  1  0
  5  6  2  0
  6  1  1  0
  7  8  1  0
  8  9  1  0
  9 10  1  0
 10 11  1  0
 11  7  2  0
  5  7  1  0
 10 12  1  0
 12 13  1  0
 12 14  2  0
 15 20  2  0
 18 16  1  0
 16 17  2  0
 17 15  1  0
  9 15  1  0
 18 19  2  0
 19 20  1  0
 20 21  1  0
 21 22  2  0
 22 23  1  0
 23 24  2  0
 24 19  1  0
M  END
> <chembl_id>
CHEMBL2325102

$$$$

  SciTegic12131613482D

 26 30  0  0  0  0            999 V2000
    0.8955    2.0810    0.0000 C   0  0
    1.7138    1.2033    0.0000 C   0  0
    2.8908    1.4370    0.0000 C   0  0
   -1.0028    1.5132    0.0000 N   0  0
   -2.3155    0.7475    0.0000 C   0  0
   -2.3155   -0.7475    0.0000 N   0  0
   -1.0028   -1.5132    0.0000 C   0  0
    0.2917    0.7475    0.0000 C   0  0
    0.2917   -0.7475    0.0000 C   0  0
    1.7138   -1.2033    0.0000 C   0  0
    2.5889    0.0182    0.0000 O   0  0
   -3.6168    1.4950    0.0000 C   0  0
   -4.9669    0.8708    0.0000 C   0  0
   -5.9732    1.9832    0.0000 N   0  0
   -5.2262    3.2840    0.0000 N   0  0
   -3.7582    2.9755    0.0000 C   0  0
   -0.9971   -3.0138    0.0000 N   0  0
   -2.2935   -3.7700    0.0000 C   0  0
   -4.6304   -4.2656    0.0000 N   0  0
   -3.6203   -3.1531    0.0000 N   0  0
   -3.8857   -5.5600    0.0000 C   0  0
   -2.4241   -5.2456    0.0000 C   0  0
   -1.4032   -6.3500    0.0000 C   0  0
   -1.8757   -7.7944    0.0000 C   0  0
   -3.3373   -8.1089    0.0000 C   0  0
   -4.3620   -6.9866    0.0000 C   0  0
  2  1  1  0
  3  2  1  0
  8  4  1  0
  4  5  2  0
  5  6  1  0
  6  7  2  0
  7  9  1  0
  8  9  2  0
  9 10  1  0
 10 11  1  0
 11  2  1  0
  2  8  1  0
  5 12  1  0
 12 13  2  0
 13 14  1  0
 14 15  1  0
 15 16  2  0
 16 12  1  0
  7 17  1  0
 17 18  1  0
 18 22  1  0
 21 19  1  0
 19 20  1  0
 20 18  2  0
 21 22  2  0
 21 26  1  0
 22 23  1  0
 23 24  1  0
 24 25  1  0
 25 26  1  0
M  END
> <chembl_id>
CHEMBL3758959

$$$$

  SciTegic06061310022D

 45 51  0  0  0  0            999 V2000
    1.9615   -6.2441    0.0000 N   0  0
    2.5135   -6.8572    0.0000 C   0  0
    2.2586   -7.6418    0.0000 N   0  0
    1.1545   -6.4156    0.0000 C   0  0
    0.8996   -7.2003    0.0000 C   0  0
    1.4516   -7.8134    0.0000 C   0  0
    1.0391   -8.5278    0.0000 N   0  0
    0.2321   -8.3563    0.0000 N   0  0
    0.1459   -7.5358    0.0000 C   0  0
    0.6025   -5.8025    0.0000 N   0  0
   -0.5686   -7.1233    0.0000 C   0  0
   -1.2830   -7.5358    0.0000 C   0  0
   -1.2830   -5.8858    0.0000 C   0  0
   -0.5686   -6.2983    0.0000 C   0  0
    1.3747   -9.2815    0.0000 C   0  0  1  0  0  0
    2.1952   -9.3677    0.0000 C   0  0
    2.5307  -10.1214    0.0000 C   0  0
    2.0458  -10.7889    0.0000 C   0  0  1  0  0  0
    1.2253  -10.7026    0.0000 C   0  0
    0.8898   -9.9489    0.0000 C   0  0
    2.3814  -11.5425    0.0000 N   0  0
    3.2018  -11.6288    0.0000 C   0  0
    3.5374  -12.3824    0.0000 C   0  0
    3.0525  -13.0499    0.0000 N   0  0
    2.2320  -12.9636    0.0000 C   0  0
    1.8964  -12.2100    0.0000 C   0  0
   -1.9975   -6.2983    0.0000 C   0  0
   -1.9975   -7.1233    0.0000 C   0  0
   -2.7821   -7.3783    0.0000 N   0  0
   -3.2670   -6.7108    0.0000 C   0  0
   -2.7821   -6.0434    0.0000 N   0  0
   -4.0920   -6.7108    0.0000 C   0  0
   -4.5045   -5.9963    0.0000 C   0  0
   -5.3295   -5.9963    0.0000 C   0  0
   -5.7420   -5.2819    0.0000 C   0  0
   -5.3295   -4.5674    0.0000 C   0  0
   -4.5045   -4.5674    0.0000 C   0  0
   -4.0920   -5.2819    0.0000 C   0  0
   -3.2670   -5.2819    0.0000 O   0  0
   -2.8545   -4.5674    0.0000 C   0  0
    3.3880  -13.8036    0.0000 C   0  0
    2.9031  -14.4710    0.0000 C   0  0
    3.2387  -15.2247    0.0000 C   0  0
    2.7537  -15.8921    0.0000 O   0  0
    3.0893  -16.6458    0.0000 C   0  0
 21 22  1  0
  4  1  1  0
  4 10  1  0
  5  6  1  0
 11 12  2  0
 12 28  1  0
 21 26  1  0
 22 23  1  0
 23 24  1  0
 24 25  1  0
 25 26  1  0
 18 21  1  6
 27 28  2  0
  2  3  1  0
 27 13  1  0
  3  6  2  0
 13 14  2  0
 14 11  1  0
 28 29  1  0
 29 30  1  0
 30 31  2  0
 31 27  1  0
  9 11  1  0
 30 32  1  0
 15 16  1  0
 32 33  1  0
  1  2  2  0
 33 34  2  0
  5  4  2  0
 34 35  1  0
  6  7  1  0
 35 36  2  0
  7  8  1  0
 36 37  1  0
  8  9  2  0
 37 38  2  0
 38 33  1  0
  9  5  1  0
 38 39  1  0
 15 20  1  0
 39 40  1  0
 16 17  1  0
 24 41  1  0
 17 18  1  0
 41 42  1  0
 18 19  1  0
 42 43  1  0
 19 20  1  0
 43 44  1  0
 15  7  1  1
 44 45  1  0
M  END
> <chembl_id>
CHEMBL443098

$$$$

  SciTegic01181116592D

 23 26  0  0  0  0            999 V2000
   11.9615   -9.2201    0.0000 N   0  0
   12.6787   -8.8064    0.0000 C   0  0
   12.6758   -7.9751    0.0000 N   0  0
   11.9597   -7.5655    0.0000 C   0  0
   11.9573   -6.7396    0.0000 N   0  0
   11.2460   -8.8069    0.0000 C   0  0
   11.2427   -7.9818    0.0000 C   0  0
   10.4623   -9.0649    0.0000 S   0  0
    9.9745   -8.3994    0.0000 C   0  0
   10.4566   -7.7316    0.0000 C   0  0
   10.1212   -6.9844    0.0000 C   0  0
    9.3027   -6.8985    0.0000 C   0  0
    8.8206   -7.5664    0.0000 C   0  0
    9.1570   -8.3199    0.0000 C   0  0
   12.6712   -6.3246    0.0000 C   0  0  1  0  0  0
   13.3876   -6.7354    0.0000 C   0  0
   12.6687   -5.4988    0.0000 C   0  0
   13.3879   -7.5585    0.0000 C   0  0
   14.1034   -7.9692    0.0000 C   0  0
   14.8184   -7.5541    0.0000 C   0  0
   14.8132   -6.7240    0.0000 C   0  0
   14.0971   -6.3171    0.0000 C   0  0
   13.3827   -5.0838    0.0000 O   0  0
  4  5  1  0
  6  7  2  0
  6  1  1  0
  9 14  1  0
 10 11  1  0
 11 12  1  0
 12 13  1  0
 13 14  1  0
  2  3  1  0
  5 15  1  0
 15 16  1  0
  7 10  1  0
 15 17  1  6
  9  8  1  0
 16 18  2  0
  8  6  1  0
 18 19  1  0
  9 10  2  0
 19 20  2  0
  3  4  2  0
 20 21  1  0
  4  7  1  0
 21 22  2  0
 22 16  1  0
  1  2  2  0
 17 23  1  0
M  END
> <chembl_id>
CHEMBL1271950

$$$$

  SciTegic06051313552D

 25 28  0  0  0  0            999 V2000
   16.3342   -6.8140    0.0000 C   0  0
   16.3330   -7.6336    0.0000 C   0  0
   17.0411   -8.0425    0.0000 C   0  0
   17.7507   -7.6331    0.0000 C   0  0
   17.7479   -6.8104    0.0000 C   0  0
   17.0393   -6.4052    0.0000 C   0  0
   18.4286   -6.3583    0.0000 C   0  0
   19.1958   -6.6394    0.0000 C   0  0
   19.7004   -5.9966    0.0000 C   0  0
   19.2445   -5.3186    0.0000 N   0  0
   18.4589   -5.5417    0.0000 N   0  0
   19.6500   -4.6092    0.0000 C   0  0
   20.4672   -4.6057    0.0000 N   0  0
   19.2384   -3.9032    0.0000 S   0  0
   20.5149   -6.0267    0.0000 C   0  0
   21.7609   -5.3634    0.0000 C   0  0
   20.9462   -5.3366    0.0000 C   0  0
   22.1475   -6.0881    0.0000 C   0  0
   21.7119   -6.7786    0.0000 C   0  0
   20.8969   -6.7477    0.0000 C   0  0
   20.4644   -7.4370    0.0000 C   0  0
   20.8458   -8.1576    0.0000 C   0  0
   21.6641   -8.1848    0.0000 C   0  0
   22.0929   -7.4948    0.0000 C   0  0
   15.6250   -8.0416    0.0000 C   0  0
  1  2  2  0
  2  3  1  0
  3  4  2  0
  4  5  1  0
  5  6  2  0
  6  1  1  0
  7  8  1  0
  8  9  1  0
  9 10  1  0
 10 11  1  0
 11  7  2  0
  5  7  1  0
 10 12  1  0
 12 13  1  0
 12 14  2  0
 15 20  2  0
 18 16  1  0
 16 17  2  0
 17 15  1  0
  9 15  1  0
 18 19  2  0
 19 20  1  0
 20 21  1  0
 21 22  2  0
 22 23  1  0
 23 24  2  0
 24 19  1  0
  2 25  1  0
M  END
> <chembl_id>
CHEMBL2325107

$$$$

  SciTegic04191617032D

 35 39  0  0  0  0            999 V2000
    4.6488    1.8163    0.0000 C   0  0
    6.1174    2.1217    0.0000 C   0  0
    6.5873    3.5462    0.0000 N   0  0
    5.5886    4.6654    0.0000 C   0  0
    4.1200    4.3600    0.0000 N   0  0
    3.6500    2.9355    0.0000 C   0  0
    6.0558    6.0916    0.0000 O   0  0
    5.0549    7.2100    0.0000 C   0  0
    2.1812    2.6271    0.0000 N   0  0
    1.7138    1.2033    0.0000 C   0  0
    1.7138   -1.2033    0.0000 N   0  0
    2.5889    0.0182    0.0000 N   0  0
    0.2917   -0.7475    0.0000 C   0  0
    0.2917    0.7475    0.0000 C   0  0
   -1.0028    1.5132    0.0000 C   0  0
   -2.3155    0.7475    0.0000 C   0  0
   -2.3155   -0.7475    0.0000 C   0  0
   -1.0028   -1.5132    0.0000 C   0  0
    5.5198    8.6362    0.0000 C   0  0
    4.5172    9.7519    0.0000 C   0  0
    3.0497    9.4415    0.0000 C   0  0
    2.5848    8.0154    0.0000 C   0  0
    3.5873    6.8996    0.0000 C   0  0
    1.1170    7.7018    0.0000 N   0  0
    0.6539    6.2742    0.0000 C   0  0
   -0.8138    5.9606    0.0000 C   0  0
   -1.1842    4.8192    0.0000 C   0  0
    1.4575    5.3830    0.0000 O   0  0
    7.1166    1.0019    0.0000 N   0  0
    6.6491   -0.4234    0.0000 C   0  0
    7.6496   -1.5410    0.0000 C   0  0
    9.1177   -1.2333    0.0000 N   0  0
    9.5853    0.1919    0.0000 C   0  0
    8.5848    1.3095    0.0000 C   0  0
    9.9181   -2.1274    0.0000 C   0  0
  1  2  2  0
  2  3  1  0
  3  4  2  0
  4  5  1  0
  5  6  2  0
  6  1  1  0
  4  7  1  0
  7  8  1  0
  6  9  1  0
  9 10  1  0
 10 14  1  0
 13 11  1  0
 11 12  1  0
 12 10  2  0
 13 14  2  0
 14 15  1  0
 15 16  2  0
 16 17  1  0
 17 18  2  0
 18 13  1  0
  8 19  2  0
 19 20  1  0
 20 21  2  0
 21 22  1  0
 22 23  2  0
 23  8  1  0
 22 24  1  0
 24 25  1  0
 25 26  1  0
 26 27  1  0
 25 28  2  0
  2 29  1  0
 29 30  1  0
 29 34  1  0
 30 31  1  0
 31 32  1  0
 32 33  1  0
 33 34  1  0
 32 35  1  0
M  END
> <chembl_id>
CHEMBL3604938

$$$$

  SciTegic04301217312D

 26 28  0  0  0  0            999 V2000
   -3.3255   -7.1193    0.0000 C   0  0
   -3.3266   -7.9474    0.0000 N   0  0
   -2.6111   -8.3607    0.0000 C   0  0
   -1.8940   -7.9470    0.0000 N   0  0
   -1.8968   -7.1156    0.0000 C   0  0
   -2.6129   -6.7061    0.0000 N   0  0
   -1.1832   -6.7000    0.0000 N   0  0
   -0.4665   -7.1102    0.0000 C   0  0
   -0.4667   -7.9337    0.0000 C   0  0
    0.2490   -8.3438    0.0000 C   0  0
    0.9636   -7.9282    0.0000 C   0  0
    0.9579   -7.0981    0.0000 C   0  0
    0.2414   -6.6917    0.0000 C   0  0
   -2.6113   -9.1865    0.0000 N   0  0
   -3.3266   -9.5992    0.0000 N   0  0
   -3.3268  -10.4250    0.0000 C   0  0
   -4.0407   -6.7065    0.0000 N   0  0
   -4.7558   -7.1196    0.0000 C   0  0
   -2.6117  -10.8381    0.0000 C   0  0
   -2.6138  -11.6623    0.0000 C   0  0
   -1.8996  -12.0753    0.0000 C   0  0
   -1.1833  -11.6625    0.0000 C   0  0
   -1.1858  -10.8324    0.0000 C   0  0
   -1.9006  -10.4232    0.0000 C   0  0
   -0.4677  -12.0746    0.0000 O   0  0
    0.2469  -11.6609    0.0000 C   0  0
 12 13  2  0
 13  8  1  0
  1  2  2  0
  3 14  1  0
  5  7  1  0
 14 15  1  0
  3  4  2  0
 15 16  2  0
  7  8  1  0
  1 17  1  0
 17 18  1  0
  8  9  2  0
 16 19  1  0
  4  5  1  0
 19 20  2  0
  9 10  1  0
 20 21  1  0
  2  3  1  0
 21 22  2  0
 10 11  2  0
 22 23  1  0
  5  6  2  0
 23 24  2  0
 24 19  1  0
 11 12  1  0
 22 25  1  0
  6  1  1  0
 25 26  1  0
M  END
> <chembl_id>
CHEMBL1946845

$$$$

  SciTegic09081514182D

 38 39  0  0  0  0            999 V2000
    1.2990   -0.7500    0.0000 C   0  0
    1.2990    0.7500    0.0000 C   0  0
    0.0000    1.5000    0.0000 C   0  0
   -1.2990    0.7500    0.0000 C   0  0
   -1.2990   -0.7500    0.0000 C   0  0
    0.0000   -1.5000    0.0000 C   0  0
   -2.5972   -1.5031    0.0000 C   0  0
   -2.5951   -3.0039    0.0000 C   0  0
   -3.8933   -3.7570    0.0000 C   0  0
   -3.8912   -5.2578    0.0000 C   0  0
   -4.9336   -3.1588    0.0000 O   0  0
   -5.1894   -6.0109    0.0000 C   0  0
   -5.1872   -7.5117    0.0000 C   0  0
   -6.2296   -5.4127    0.0000 O   0  0
   -6.4854   -8.2648    0.0000 C   0  0
   -6.4833   -9.7657    0.0000 C   0  0
   -7.7797  -10.5203    0.0000 C   0  0
   -7.7745  -12.0202    0.0000 C   0  0
   -6.4729  -12.7657    0.0000 C   0  0
   -5.1764  -12.0112    0.0000 C   0  0
   -5.1816  -10.5113    0.0000 C   0  0
    2.5973   -1.5031    0.0000 O   0  0
    2.3383    1.3500    0.0000 O   0  0
   -6.4687  -13.9657    0.0000 O   0  0
   -3.8726  -12.7545    0.0000 O   0  0
    2.5956   -2.7031    0.0000 C   0  0
   -2.8363  -12.1494    0.0000 C   0  0
   -2.5916   -6.0087    0.0000 C   0  0
   -2.5912   -7.5095    0.0000 C   0  0
   -1.2916   -8.2603    0.0000 C   0  0
   -0.2524   -7.6603    0.0000 O   0  0
   -1.2912   -9.7611    0.0000 O   0  0
   -0.0031    3.0008    0.0000 O   0  0
   -9.0732  -12.7725    0.0000 O   0  0
    0.0084  -10.5119    0.0000 C   0  0
    0.0087  -11.7119    0.0000 C   0  0
   -1.0432    3.5993    0.0000 C   0  0
  -10.1137  -12.1746    0.0000 C   0  0
  1  2  2  0
  2  3  1  0
  3  4  2  0
  4  5  1  0
  5  6  2  0
  6  1  1  0
  5  7  1  0
  7  8  2  0
  8  9  1  0
  9 10  2  0
  9 11  1  0
 10 12  1  0
 12 13  1  0
 12 14  2  0
 13 15  2  0
 15 16  1  0
 16 17  2  0
 17 18  1  0
 18 19  2  0
 19 20  1  0
 20 21  2  0
 21 16  1  0
  1 22  1  0
  2 23  1  0
 19 24  1  0
 20 25  1  0
 22 26  1  0
 25 27  1  0
 10 28  1  0
 28 29  1  0
 29 30  1  0
 30 31  2  0
 30 32  1  0
  3 33  1  0
 18 34  1  0
 32 35  1  0
 35 36  1  0
 33 37  1  0
 34 38  1  0
M  END
> <chembl_id>
CHEMBL3402866

$$$$

  SciTegic04191617032D

 37 41  0  0  0  0            999 V2000
    4.6488    1.8163    0.0000 C   0  0
    6.1174    2.1217    0.0000 C   0  0
    6.5873    3.5462    0.0000 N   0  0
    5.5886    4.6654    0.0000 C   0  0
    4.1200    4.3600    0.0000 N   0  0
    3.6500    2.9355    0.0000 C   0  0
    6.0558    6.0916    0.0000 O   0  0
    5.0549    7.2100    0.0000 C   0  0
    2.1812    2.6271    0.0000 N   0  0
    1.7138    1.2033    0.0000 C   0  0
    1.7138   -1.2033    0.0000 N   0  0
    2.5889    0.0182    0.0000 N   0  0
    0.2917   -0.7475    0.0000 C   0  0
    0.2917    0.7475    0.0000 C   0  0
   -1.0028    1.5132    0.0000 C   0  0
   -2.3155    0.7475    0.0000 C   0  0
   -2.3155   -0.7475    0.0000 C   0  0
   -1.0028   -1.5132    0.0000 C   0  0
    5.5198    8.6362    0.0000 C   0  0
    4.5172    9.7519    0.0000 C   0  0
    3.0497    9.4415    0.0000 C   0  0
    2.5848    8.0154    0.0000 C   0  0
    3.5873    6.8996    0.0000 C   0  0
    1.1170    7.7018    0.0000 N   0  0
    0.6539    6.2742    0.0000 C   0  0
   -0.8138    5.9606    0.0000 C   0  0
   -1.1842    4.8192    0.0000 C   0  0
    1.4575    5.3830    0.0000 O   0  0
    7.1166    1.0019    0.0000 N   0  0
    6.6491   -0.4234    0.0000 C   0  0
    7.6496   -1.5410    0.0000 C   0  0
    9.1177   -1.2333    0.0000 N   0  0
    9.5853    0.1919    0.0000 C   0  0
    8.5848    1.3095    0.0000 C   0  0
   10.1211   -2.3495    0.0000 C   0  0
   11.2952   -2.1017    0.0000 O   0  0
    9.7490   -3.4903    0.0000 C   0  0
  1  2  2  0
  2  3  1  0
  3  4  2  0
  4  5  1  0
  5  6  2  0
  6  1  1  0
  4  7  1  0
  7  8  1  0
  6  9  1  0
  9 10  1  0
 10 14  1  0
 13 11  1  0
 11 12  1  0
 12 10  2  0
 13 14  2  0
 14 15  1  0
 15 16  2  0
 16 17  1  0
 17 18  2  0
 18 13  1  0
  8 19  2  0
 19 20  1  0
 20 21  2  0
 21 22  1  0
 22 23  2  0
 23  8  1  0
 22 24  1  0
 24 25  1  0
 25 26  1  0
 26 27  2  0
 25 28  2  0
  2 29  1  0
 29 30  1  0
 29 34  1  0
 30 31  1  0
 31 32  1  0
 32 33  1  0
 33 34  1  0
 32 35  1  0
 35 36  2  0
 35 37  1  0
M  END
> <chembl_id>
CHEMBL3604941

$$$$

  SciTegic01181116592D

 44 50  0  0  0  0            999 V2000
   26.9815  -24.0476    0.0000 C   0  0  2  0  0  0
   26.4300  -24.6599    0.0000 C   0  0
   26.6819  -25.4417    0.0000 C   0  0
   27.4883  -25.6176    0.0000 C   0  0  2  0  0  0
   28.0425  -25.0052    0.0000 C   0  0
   27.7903  -24.2169    0.0000 C   0  0
   27.7401  -26.4032    0.0000 N   0  0
   27.1872  -27.0121    0.0000 C   0  0
   27.4361  -27.7949    0.0000 C   0  0
   28.2418  -27.9738    0.0000 N   0  0
   28.7983  -27.3635    0.0000 C   0  0
   28.5492  -26.5743    0.0000 C   0  0
   28.4907  -28.7604    0.0000 C   0  0
   26.7255  -23.2633    0.0000 N   0  0
   24.5152  -22.1875    0.0000 N   0  0
   24.5141  -23.0107    0.0000 C   0  0
   25.2331  -23.4235    0.0000 N   0  0
   25.2313  -21.7747    0.0000 C   0  0
   25.9425  -22.1838    0.0000 C   0  0
   25.9432  -23.0107    0.0000 C   0  0
   27.2113  -22.6002    0.0000 N   0  0
   26.7276  -21.9301    0.0000 C   0  0
   27.1382  -21.2152    0.0000 C   0  0
   27.9641  -21.2171    0.0000 C   0  0
   28.3749  -20.5026    0.0000 C   0  0
   27.9608  -19.7880    0.0000 C   0  0
   27.1315  -19.7925    0.0000 C   0  0
   26.7244  -20.5076    0.0000 C   0  0
   28.3708  -19.0721    0.0000 N   0  0
   29.1958  -19.0692    0.0000 C   0  0
   29.6826  -19.7296    0.0000 O   0  0
   29.6778  -18.3948    0.0000 N   0  0
   30.4634  -18.6468    0.0000 C   0  0
   30.4641  -19.4690    0.0000 C   0  0
   31.1754  -19.8777    0.0000 C   0  0
   31.8864  -19.4653    0.0000 C   0  0
   31.8817  -18.6400    0.0000 C   0  0
   31.1698  -18.2350    0.0000 C   0  0
   31.1770  -20.7027    0.0000 Cl  0  0
   25.2309  -20.9497    0.0000 N   0  0
   29.2963  -28.9381    0.0000 C   0  0
   29.5452  -29.7247    0.0000 C   0  0
   30.3508  -29.9024    0.0000 O   0  0
   30.5997  -30.6890    0.0000 C   0  0
 20 14  1  0
 14 21  1  0
 21 22  2  0
 22 19  1  0
  8  9  1  0
 22 23  1  0
  9 10  1  0
 23 24  2  0
 10 11  1  0
 24 25  1  0
 11 12  1  0
 25 26  2  0
  5  6  1  0
 26 27  1  0
 10 13  1  0
 27 28  2  0
 28 23  1  0
  1  2  1  0
 26 29  1  0
  1 14  1  1
 29 30  1  0
 30 31  1  0
  4  7  1  6
  7  8  1  0
 31 34  1  0
 33 32  1  0
 32 30  2  0
 15 16  2  0
 33 34  2  0
 16 17  1  0
 34 35  1  0
 17 20  2  0
 35 36  2  0
  1  6  1  0
 36 37  1  0
 19 18  2  0
 37 38  2  0
 38 33  1  0
 18 15  1  0
 35 39  1  0
 19 20  1  0
 18 40  1  0
  2  3  1  0
 13 41  1  0
  3  4  1  0
 41 42  1  0
  4  5  1  0
 42 43  1  0
  7 12  1  0
 43 44  1  0
M  END
> <chembl_id>
CHEMBL1256427

$$$$

  SciTegic01161211252D

 43 49  0  0  0  0            999 V2000
    6.2464   -8.4717    0.0000 N   0  0
    6.9736   -8.0822    0.0000 C   0  0
    6.9999   -7.2576    0.0000 O   0  0
    7.6747   -8.5173    0.0000 O   0  0
    7.6483   -9.3418    0.0000 C   0  0
    6.9197   -9.7289    0.0000 C   0  0
    6.8916  -10.5497    0.0000 C   0  0
    7.5906  -10.9885    0.0000 C   0  0
    8.3196  -10.6004    0.0000 C   0  0
    8.3497   -9.7732    0.0000 C   0  0
    5.5329   -7.2364    0.0000 C   0  0
    4.8183   -6.8194    0.0000 C   0  0
    4.1020   -7.2298    0.0000 C   0  0
    4.0992   -8.0569    0.0000 C   0  0
    4.8186   -8.4720    0.0000 C   0  0
    5.5319   -8.0592    0.0000 C   0  0
    3.3859   -8.4700    0.0000 C   0  0
    2.6326   -8.1326    0.0000 C   0  0
    3.2983   -9.2903    0.0000 N   0  0
    2.4912   -9.4607    0.0000 C   0  0
    2.0794   -8.7478    0.0000 N   0  0
    1.2741   -8.9191    0.0000 C   0  0
    1.1882   -9.7379    0.0000 C   0  0
    1.9404  -10.0725    0.0000 S   0  0
    2.6241   -7.3089    0.0000 C   0  0
    3.3363   -6.8903    0.0000 C   0  0
    3.3290   -6.0661    0.0000 C   0  0
    1.9081   -6.9059    0.0000 N   0  0
    1.8972   -6.0831    0.0000 C   0  0
    2.6113   -5.6558    0.0000 N   0  0
    1.1769   -5.6809    0.0000 N   0  0
    1.1650   -4.8560    0.0000 C   0  0
    1.8733   -4.4387    0.0000 C   0  0
    1.8617   -3.6145    0.0000 C   0  0
    1.1408   -3.2115    0.0000 C   0  0
    0.4301   -3.6388    0.0000 C   0  0
    0.4451   -4.4615    0.0000 C   0  0
    1.1279   -2.3866    0.0000 N   0  0
    1.8397   -1.9681    0.0000 C   0  0
    1.8288   -1.1468    0.0000 C   0  0
    1.1097   -0.7417    0.0000 O   0  0
    0.3999   -1.1642    0.0000 C   0  0
    0.4093   -1.9918    0.0000 C   0  0
  1  2  1  0
  2  3  2  0
  2  4  1  0
  4  5  1  0
  5  6  1  0
  5 10  2  0
  6  7  2  0
  7  8  1  0
  8  9  2  0
  9 10  1  0
 19 17  1  0
 14 17  1  0
 20 21  1  0
 14 15  1  0
 12 13  1  0
 29 31  1  0
 15 16  2  0
 31 32  1  0
 16 11  1  0
 32 33  2  0
 17 18  2  0
 33 34  1  0
 21 22  1  0
 34 35  2  0
 22 23  2  0
 35 36  1  0
 23 24  1  0
 36 37  2  0
 37 32  1  0
 24 20  1  0
 35 38  1  0
 38 39  1  0
 11 12  2  0
 13 14  2  0
 25 26  2  0
 26 27  1  0
 38 43  1  0
 39 40  1  0
 40 41  1  0
 41 42  1  0
 42 43  1  0
 27 30  2  0
 18 21  1  0
 29 28  2  0
 28 25  1  0
 18 25  1  0
 29 30  1  0
 20 19  2  0
 16  1  1  0
M  END
> <chembl_id>
CHEMBL1090355

$$$$

  SciTegic09081514182D

 33 34  0  0  0  0            999 V2000
    1.2990   -0.7500    0.0000 C   0  0
    1.2990    0.7500    0.0000 C   0  0
    0.0000    1.5000    0.0000 C   0  0
   -1.2990    0.7500    0.0000 C   0  0
   -1.2990   -0.7500    0.0000 C   0  0
    0.0000   -1.5000    0.0000 C   0  0
   -2.5972   -1.5031    0.0000 C   0  0
   -2.5951   -3.0039    0.0000 C   0  0
   -3.8933   -3.7570    0.0000 C   0  0
   -3.8912   -5.2578    0.0000 C   0  0
   -4.9336   -3.1588    0.0000 O   0  0
   -5.1894   -6.0109    0.0000 C   0  0
   -5.1872   -7.5117    0.0000 C   0  0
   -6.2296   -5.4127    0.0000 O   0  0
   -6.4854   -8.2648    0.0000 C   0  0
   -6.4833   -9.7657    0.0000 C   0  0
   -7.7797  -10.5203    0.0000 C   0  0
   -7.7745  -12.0202    0.0000 C   0  0
   -6.4729  -12.7657    0.0000 C   0  0
   -5.1764  -12.0112    0.0000 C   0  0
   -5.1816  -10.5113    0.0000 C   0  0
    2.3383   -1.3500    0.0000 O   0  0
    2.3383    1.3500    0.0000 O   0  0
   -6.4687  -13.9657    0.0000 O   0  0
   -3.8726  -12.7545    0.0000 O   0  0
   -2.8363  -12.1494    0.0000 C   0  0
   -2.5916   -6.0087    0.0000 C   0  0
   -2.5912   -7.5095    0.0000 C   0  0
   -1.2916   -8.2603    0.0000 C   0  0
   -0.2524   -7.6603    0.0000 O   0  0
   -1.2912   -9.7611    0.0000 O   0  0
    0.0084  -10.5119    0.0000 C   0  0
    0.0087  -11.7119    0.0000 C   0  0
  1  2  2  0
  2  3  1  0
  3  4  2  0
  4  5  1  0
  5  6  2  0
  6  1  1  0
  5  7  1  0
  7  8  2  0
  8  9  1  0
  9 10  2  0
  9 11  1  0
 10 12  1  0
 12 13  1  0
 12 14  2  0
 13 15  2  0
 15 16  1  0
 16 17  2  0
 17 18  1  0
 18 19  2  0
 19 20  1  0
 20 21  2  0
 21 16  1  0
  1 22  1  0
  2 23  1  0
 19 24  1  0
 20 25  1  0
 25 26  1  0
 10 27  1  0
 27 28  1  0
 28 29  1  0
 29 30  2  0
 29 31  1  0
 31 32  1  0
 32 33  1  0
M  END
> <chembl_id>
CHEMBL3402850

$$$$

  SciTegic12091611202D

 29 32  0  0  0  0            999 V2000
    2.8401   -9.4736    0.0000 C   0  0
   -4.9282   -3.7385    0.0000 C   0  0
    1.5604   -6.0143    0.0000 C   0  0  1  0  0  0
   -2.3155    0.7475    0.0000 N   0  0
   -2.3155   -0.7475    0.0000 C   0  0
    1.7138    1.2033    0.0000 N   0  0
   -1.0028    1.5132    0.0000 C   0  0
    1.7138   -1.2033    0.0000 N   0  0
   -2.3350   -5.2470    0.0000 C   0  0
   -1.0449   -7.5017    0.0000 C   0  0
   -3.6187   -1.4919    0.0000 N   0  0
    2.8477   -8.2736    0.0000 O   0  0
    1.5531   -7.5143    0.0000 C   0  0  1  0  0  0
    0.2917   -0.7475    0.0000 C   0  0
    2.5889    0.0182    0.0000 C   0  0
   -2.3301   -3.7470    0.0000 N   0  0
    0.2650   -5.2580    0.0000 C   0  0
   -3.6267   -2.9927    0.0000 C   0  0
   -4.9331   -5.2385    0.0000 C   0  0
   -1.0028   -1.5132    0.0000 C   0  0
   -3.6365   -5.9928    0.0000 N   0  0
    0.2505   -8.2579    0.0000 C   0  0
    0.2917    0.7475    0.0000 C   0  0
   -1.0378   -6.0016    0.0000 N   0  0
    2.1855   -2.6254    0.0000 C   0  0
    3.3606   -2.8684    0.0000 C   0  0
    1.3877   -3.5218    0.0000 C   0  0
    3.7889    0.0269    0.0000 C   0  0
    2.6025   -5.4193    0.0000 F   0  0
 12  1  1  0
 13 12  1  1
 17  3  1  0
 24 17  1  0
 11  5  1  0
  5  4  1  0
 14  8  1  0
 18  2  1  0
 15  6  2  0
  3 13  1  0
 16 18  2  0
 23  6  1  0
 15  8  1  0
 22 10  1  0
 11 18  1  0
  7 23  1  0
 23 14  2  0
  7  4  2  0
 14 20  1  0
 19 21  1  0
 20  5  2  0
  9 24  1  0
  2 19  2  0
 24 10  1  0
  9 21  2  0
  9 16  1  0
 13 22  1  0
  8 25  1  0
 25 26  1  0
 25 27  1  0
 15 28  1  0
  3 29  1  1
M  END
> <chembl_id>
CHEMBL3736183

$$$$

  SciTegic12201611502D

 28 31  0  0  0  0            999 V2000
   -2.1332   -2.2973    0.0000 N   0  0
   -3.4277   -1.5498    0.0000 C   0  0
   -3.4277    0.0000    0.0000 N   0  0
   -2.1332    0.6928    0.0000 C   0  0
   -0.8205    0.0000    0.0000 C   0  0
    0.4558    0.6928    0.0000 C   0  0
    1.7503    0.0000    0.0000 C   0  0
    1.7503   -1.5498    0.0000 C   0  0
    0.4558   -2.2973    0.0000 C   0  0
   -0.8205   -1.5498    0.0000 C   0  0
    0.4558    2.1879    0.0000 O   0  0
    3.0631    0.6928    0.0000 O   0  0
    3.0631    2.1879    0.0000 C   0  0
    1.7503    2.9537    0.0000 C   0  0
   -2.1454    2.1947    0.0000 N   0  0
    3.0410   -2.3153    0.0000 O   0  0
    3.0239   -3.8160    0.0000 C   0  0
    4.3146   -4.5820    0.0000 C   0  0
    4.2976   -6.0827    0.0000 O   0  0
    5.3296   -6.6951    0.0000 C   0  0
   -3.4508    2.9353    0.0000 C   0  0
   -3.4653    4.4352    0.0000 C   0  0
   -4.7714    5.1728    0.0000 C   0  0
   -6.0632    4.4104    0.0000 C   0  0
   -6.0489    2.9104    0.0000 C   0  0
   -4.7427    2.1729    0.0000 C   0  0
   -7.1082    5.0004    0.0000 F   0  0
   -4.7829    6.3727    0.0000 Cl  0  0
  1  2  1  0
  2  3  2  0
  3  4  1  0
  4  5  2  0
  5  6  1  0
  6  7  2  0
  7  8  1  0
  8  9  2  0
  9 10  1  0
  1 10  2  0
  5 10  1  0
 12 13  1  0
 13 14  1  0
 11 14  1  0
  6 11  1  0
  7 12  1  0
  4 15  1  0
 17 18  1  0
 16 17  1  0
 19 20  1  0
 18 19  1  0
  8 16  1  0
 21 22  1  0
 22 23  2  0
 23 24  1  0
 24 25  2  0
 25 26  1  0
 21 26  2  0
 24 27  1  0
 23 28  1  0
 15 21  1  0
M  END
> <chembl_id>
CHEMBL3806110

$$$$

  SciTegic12201611512D

 32 35  0  0  0  0            999 V2000
   -2.1332   -2.2973    0.0000 N   0  0
   -3.4277   -1.5498    0.0000 C   0  0
   -3.4277    0.0000    0.0000 N   0  0
   -2.1332    0.6928    0.0000 C   0  0
   -0.8205    0.0000    0.0000 C   0  0
    0.4558    0.6928    0.0000 C   0  0
    1.7503    0.0000    0.0000 C   0  0
    1.7503   -1.5498    0.0000 C   0  0
    0.4558   -2.2973    0.0000 C   0  0
   -0.8205   -1.5498    0.0000 C   0  0
    0.4558    2.1879    0.0000 O   0  0
    3.0631    0.6928    0.0000 O   0  0
    3.0631    2.1879    0.0000 C   0  0
    1.7503    2.9537    0.0000 C   0  0
   -2.1454    2.1947    0.0000 N   0  0
   -3.4508    2.9353    0.0000 C   0  0
   -3.4653    4.4352    0.0000 C   0  0
   -4.7714    5.1728    0.0000 C   0  0
   -6.0632    4.4104    0.0000 C   0  0
   -6.0489    2.9104    0.0000 C   0  0
   -4.7427    2.1729    0.0000 C   0  0
   -4.7827    6.6736    0.0000 N   0  3
   -3.7484    7.2820    0.0000 O   0  0
   -5.8266    7.2654    0.0000 O   0  5
   -7.3716    5.1456    0.0000 O   0  0
   -8.4042    4.5342    0.0000 C   0  0
    3.0410   -2.3153    0.0000 O   0  0
    3.0239   -3.8160    0.0000 C   0  0
    1.9778   -4.4039    0.0000 C   0  0
    4.3146   -4.5820    0.0000 O   0  0
    4.2976   -6.0827    0.0000 C   0  0
    5.3296   -6.6951    0.0000 C   0  0
  1  2  1  0
  2  3  2  0
  3  4  1  0
  4  5  2  0
  5  6  1  0
  6  7  2  0
  7  8  1  0
  8  9  2  0
  9 10  1  0
  1 10  2  0
  5 10  1  0
 12 13  1  0
 13 14  1  0
 11 14  1  0
  6 11  1  0
  7 12  1  0
  4 15  1  0
 16 17  1  0
 17 18  2  0
 18 19  1  0
 19 20  2  0
 20 21  1  0
 16 21  2  0
 22 23  2  0
 22 24  1  0
 18 22  1  0
 25 26  1  0
 19 25  1  0
 15 16  1  0
 28 29  1  0
 27 28  1  0
 31 32  1  0
 30 31  1  0
 28 30  1  0
  8 27  1  0
M  CHG  2  22   1  24  -1
M  END
> <chembl_id>
CHEMBL3805402

$$$$

  SciTegic12091611202D

 30 33  0  0  0  0            999 V2000
   -4.9282   -3.7385    0.0000 C   0  0
    1.5604   -6.0143    0.0000 C   0  0  2  0  0  0
   -2.3155    0.7475    0.0000 N   0  0
   -2.3155   -0.7475    0.0000 C   0  0
    1.7138    1.2033    0.0000 N   0  0
   -1.0028    1.5132    0.0000 C   0  0
    1.7138   -1.2033    0.0000 N   0  0
   -2.3350   -5.2470    0.0000 C   0  0
   -1.0449   -7.5017    0.0000 C   0  0
   -3.6187   -1.4919    0.0000 N   0  0
    2.8477   -8.2736    0.0000 O   0  0
    1.5531   -7.5143    0.0000 C   0  0  1  0  0  0
    0.2917   -0.7475    0.0000 C   0  0
    2.5889    0.0182    0.0000 C   0  0
   -2.3301   -3.7470    0.0000 N   0  0
    0.2650   -5.2580    0.0000 C   0  0
   -3.6267   -2.9927    0.0000 C   0  0
   -4.9331   -5.2385    0.0000 C   0  0
   -1.0028   -1.5132    0.0000 C   0  0
   -3.6365   -5.9928    0.0000 N   0  0
    0.2505   -8.2579    0.0000 C   0  0
    0.2917    0.7475    0.0000 C   0  0
   -1.0378   -6.0016    0.0000 N   0  0
    2.1855   -2.6254    0.0000 C   0  0
    3.3606   -2.8684    0.0000 C   0  0
    1.3877   -3.5218    0.0000 C   0  0
    4.0872    0.0382    0.0000 C   0  0
    2.6025   -5.4193    0.0000 F   0  0
    2.8401   -9.4736    0.0000 C   0  0
    4.6738    1.0851    0.0000 O   0  0
 12 11  1  1
 16  2  1  0
 23 16  1  0
 10  4  1  0
  4  3  1  0
 13  7  1  0
 17  1  1  0
 14  5  2  0
  2 12  1  0
 15 17  2  0
 22  5  1  0
 14  7  1  0
 21  9  1  0
 10 17  1  0
  6 22  1  0
 22 13  2  0
  6  3  2  0
 13 19  1  0
 18 20  1  0
 19  4  2  0
  8 23  1  0
  1 18  2  0
 23  9  1  0
  8 20  2  0
  8 15  1  0
 12 21  1  0
  7 24  1  0
 24 25  1  0
 24 26  1  0
 14 27  1  0
  2 28  1  6
 11 29  1  0
 27 30  1  0
M  END
> <chembl_id>
CHEMBL3736181

$$$$

  SciTegic12131613492D

 26 30  0  0  0  0            999 V2000
    0.8955    2.0810    0.0000 C   0  0
    1.7138    1.2033    0.0000 C   0  0
    2.8908    1.4370    0.0000 C   0  0
   -1.0028    1.5132    0.0000 N   0  0
   -2.3155    0.7475    0.0000 C   0  0
   -2.3155   -0.7475    0.0000 N   0  0
   -1.0028   -1.5132    0.0000 C   0  0
    0.2917    0.7475    0.0000 C   0  0
    0.2917   -0.7475    0.0000 C   0  0
    1.7138   -1.2033    0.0000 C   0  0
    2.5889    0.0182    0.0000 O   0  0
   -3.6168    1.4950    0.0000 C   0  0
   -4.9669    0.8708    0.0000 N   0  0
   -5.9732    1.9832    0.0000 N   0  0
   -5.2262    3.2840    0.0000 C   0  0
   -3.7582    2.9755    0.0000 C   0  0
   -0.9971   -3.0138    0.0000 N   0  0
   -2.2935   -3.7700    0.0000 C   0  0
   -4.6304   -4.2656    0.0000 N   0  0
   -3.6203   -3.1531    0.0000 N   0  0
   -3.8857   -5.5600    0.0000 C   0  0
   -2.4241   -5.2456    0.0000 C   0  0
   -1.4032   -6.3500    0.0000 C   0  0
   -1.8757   -7.7944    0.0000 C   0  0
   -3.3373   -8.1089    0.0000 C   0  0
   -4.3620   -6.9866    0.0000 C   0  0
  2  1  1  0
  3  2  1  0
  8  4  1  0
  4  5  2  0
  5  6  1  0
  6  7  2  0
  7  9  1  0
  8  9  2  0
  9 10  1  0
 10 11  1  0
 11  2  1  0
  2  8  1  0
  5 12  1  0
 12 13  2  0
 13 14  1  0
 14 15  1  0
 15 16  2  0
 16 12  1  0
  7 17  1  0
 17 18  1  0
 18 22  1  0
 21 19  1  0
 19 20  1  0
 20 18  2  0
 21 22  2  0
 22 23  1  0
 23 24  2  0
 24 25  1  0
 25 26  2  0
 26 21  1  0
M  END
> <chembl_id>
CHEMBL3760058

$$$$

  SciTegic01181116592D

 23 26  0  0  0  0            999 V2000
   -1.8396  -21.8159    0.0000 N   0  0
   -1.1224  -21.4021    0.0000 C   0  0
   -1.1253  -20.5708    0.0000 N   0  0
   -1.8414  -20.1613    0.0000 C   0  0
   -1.8438  -19.3354    0.0000 N   0  0
   -2.5551  -21.4026    0.0000 C   0  0
   -2.5584  -20.5775    0.0000 C   0  0
   -3.3388  -21.6606    0.0000 S   0  0
   -3.8266  -20.9952    0.0000 C   0  0
   -3.3445  -20.3273    0.0000 C   0  0
   -3.6799  -19.5801    0.0000 C   0  0
   -4.4984  -19.4943    0.0000 C   0  0
   -4.9805  -20.1621    0.0000 N   0  0
   -4.6441  -20.9157    0.0000 C   0  0
   -1.1299  -18.9203    0.0000 C   0  0  1  0  0  0
   -0.4135  -19.3311    0.0000 C   0  0
   -1.1324  -18.0945    0.0000 C   0  0
   -0.4132  -20.1542    0.0000 C   0  0
    0.3023  -20.5650    0.0000 C   0  0
    1.0173  -20.1498    0.0000 C   0  0
    1.0121  -19.3198    0.0000 C   0  0
    0.2960  -18.9128    0.0000 C   0  0
   -0.4184  -17.6795    0.0000 O   0  0
  4  5  1  0
  6  7  2  0
  6  1  1  0
  9 14  1  0
 10 11  1  0
 11 12  1  0
 12 13  1  0
 13 14  1  0
  2  3  1  0
  5 15  1  0
 15 16  1  0
  7 10  1  0
 15 17  1  6
  9  8  1  0
 16 18  2  0
  8  6  1  0
 18 19  1  0
  9 10  2  0
 19 20  2  0
  3  4  2  0
 20 21  1  0
  4  7  1  0
 21 22  2  0
 22 16  1  0
  1  2  2  0
 17 23  1  0
M  END
> <chembl_id>
CHEMBL1272060

$$$$

  SciTegic04191617032D

 27 30  0  0  0  0            999 V2000
   -2.6111    0.7486    0.0000 C   0  0
   -2.6111   -0.7486    0.0000 C   0  0
   -1.2964   -1.4973    0.0000 C   0  0
   -1.2964    1.4973    0.0000 C   0  0
    0.0000    0.7486    0.0000 C   0  0
    0.0000   -0.7486    0.0000 C   0  0
    1.2964   -1.4973    0.0000 N   0  0
    2.5929   -0.7486    0.0000 C   0  0
    2.5929    0.7486    0.0000 N   0  0
    1.2964    1.4973    0.0000 C   0  0
    1.2995    2.9981    0.0000 N   0  0
    2.6003    3.7467    0.0000 C   0  0
    2.7434    5.2271    0.0000 C   0  0
    4.2117    5.5338    0.0000 C   0  0
    4.9571    4.2322    0.0000 N   0  0
    3.9496    3.1210    0.0000 N   0  0
    3.8926   -1.4990    0.0000 C   0  0
    5.1929   -0.7510    0.0000 C   0  0
    6.4908   -1.5029    0.0000 C   0  0
    6.4885   -3.0029    0.0000 C   0  0
    5.1883   -3.7510    0.0000 C   0  0
    3.8904   -2.9990    0.0000 C   0  0
    7.7856   -3.7580    0.0000 N   0  0
    7.7811   -5.2588    0.0000 C   0  0
    9.0782   -6.0139    0.0000 C   0  0
    9.0747   -7.2139    0.0000 C   0  0
    6.7400   -5.8554    0.0000 O   0  0
  1  2  2  0
  2  3  1  0
  3  6  2  0
  5  4  2  0
  4  1  1  0
  5  6  1  0
  6  7  1  0
  7  8  2  0
  8  9  1  0
  9 10  2  0
 10  5  1  0
 10 11  1  0
 11 12  1  0
 12 13  1  0
 13 14  2  0
 14 15  1  0
 15 16  1  0
 16 12  2  0
  8 17  1  0
 17 18  2  0
 18 19  1  0
 19 20  2  0
 20 21  1  0
 21 22  2  0
 22 17  1  0
 20 23  1  0
 23 24  1  0
 24 25  1  0
 25 26  1  0
 24 27  2  0
M  END
> <chembl_id>
CHEMBL3604916

$$$$

  SciTegic12091219282D

 40 44  0  0  0  0            999 V2000
    1.2602   -2.6079    0.0000 C   0  0
    0.4340   -2.6079    0.0000 C   0  0
    0.1797   -3.3915    0.0000 C   0  0
    0.8495   -3.8833    0.0000 O   0  0
    1.5192   -3.3915    0.0000 C   0  0
    2.2352   -3.8070    0.0000 C   0  0
    2.2338   -4.6360    0.0000 C   0  0
    2.9517   -5.0470    0.0000 C   0  0
    2.9496   -3.3912    0.0000 C   0  0
    3.6583   -3.8027    0.0000 C   0  0
    3.6594   -4.6317    0.0000 C   0  0
    4.3775   -5.0409    0.0000 N   0  0
    5.0945   -4.6272    0.0000 C   0  0
    5.0893   -3.7951    0.0000 N   0  0
    4.3709   -3.3848    0.0000 C   0  0
    4.3661   -2.5587    0.0000 N   0  0
    5.0797   -2.1438    0.0000 C   0  0
    5.7943   -2.5532    0.0000 C   0  0
    6.5075   -2.1392    0.0000 C   0  0
    6.5031   -1.3121    0.0000 C   0  0
    5.7796   -0.9011    0.0000 C   0  0
    5.0693   -1.3223    0.0000 C   0  0
    7.2162   -0.8915    0.0000 O   0  0
    7.9354   -1.3019    0.0000 C   0  0
    8.6436   -0.8813    0.0000 C   0  0
    5.7719   -0.0749    0.0000 Cl  0  0
    9.3606   -1.2940    0.0000 C   0  0
   10.0731   -0.8742    0.0000 C   0  0
   10.0677   -0.0472    0.0000 C   0  0
    9.3437    0.3582    0.0000 C   0  0
    8.6340   -0.0593    0.0000 C   0  0
   10.7920   -1.2849    0.0000 F   0  0
   -0.5410   -3.7974    0.0000 C   0  0
   -1.2518   -3.3728    0.0000 N   0  0
   -1.9684   -3.7790    0.0000 C   0  0
   -2.6792   -3.3544    0.0000 C   0  0
   -3.4005   -3.7605    0.0000 S   0  0
   -4.1113   -3.3359    0.0000 C   0  0
   -2.9954   -4.4689    0.0000 O   0  0
   -3.8215   -4.4689    0.0000 O   0  0
 16 17  1  0
 37 39  2  0
 37 40  2  0
 17 18  2  0
  7  8  1  0
 18 19  1  0
  8 11  2  0
 19 20  2  0
 20 21  1  0
 10  9  2  0
 21 22  2  0
 22 17  1  0
  9  6  1  0
 20 23  1  0
  1  2  1  0
 23 24  1  0
  2  3  2  0
 24 25  1  0
 10 11  1  0
 21 26  1  0
  3  4  1  0
 25 27  2  0
 11 12  1  0
 27 28  1  0
  4  5  1  0
 28 29  2  0
 12 13  2  0
 29 30  1  0
  5  1  2  0
 30 31  2  0
 31 25  1  0
 13 14  1  0
 28 32  1  0
  6  5  1  0
  3 33  1  0
 14 15  2  0
 33 34  1  0
 15 10  1  0
 34 35  1  0
 35 36  1  0
 15 16  1  0
 36 37  1  0
  6  7  2  0
 37 38  1  0
M  END
> <chembl_id>
CHEMBL554

$$$$

  SciTegic04091414152D

 43 48  0  0  0  0            999 V2000
   11.4819   -9.6167    0.0000 N   0  0
   11.4808  -10.4440    0.0000 C   0  0
   12.1956  -10.8569    0.0000 N   0  0
   12.1938   -9.2039    0.0000 C   0  0
   12.9093   -9.6130    0.0000 C   0  0
   12.9100  -10.4399    0.0000 C   0  0
   13.6253  -10.8509    0.0000 N   0  0
   14.3403  -10.4361    0.0000 C   0  0
   14.3356   -9.6061    0.0000 N   0  0
   13.6197   -9.1989    0.0000 C   0  0
   10.7660  -10.8560    0.0000 N   0  0
   15.0564  -10.8458    0.0000 O   0  0
   15.0475   -9.1892    0.0000 C   0  0
   15.7645   -9.5974    0.0000 C   0  0
   15.7648  -10.4220    0.0000 C   0  0
   16.4810  -10.8301    0.0000 C   0  0
   17.1939  -10.4131    0.0000 C   0  0
   17.1862   -9.5839    0.0000 C   0  0
   16.4695   -9.1795    0.0000 C   0  0
   10.7654  -11.6810    0.0000 C   0  0
   10.0505  -12.0914    0.0000 C   0  0
   10.0495  -12.9156    0.0000 C   0  0
   10.7641  -13.3295    0.0000 C   0  0
   11.4813  -12.9131    0.0000 C   0  0
   11.4788  -12.0903    0.0000 C   0  0
   10.7646  -14.1546    0.0000 N   0  0
   10.0499  -14.5681    0.0000 C   0  0
   10.0484  -15.3895    0.0000 C   0  0
   10.7612  -15.8055    0.0000 N   0  0
   11.4773  -15.3938    0.0000 C   0  0
   11.4805  -14.5662    0.0000 C   0  0
   10.7586  -16.6304    0.0000 C   0  0
    9.3367  -11.6775    0.0000 O   0  0
    8.6215  -12.0887    0.0000 C   0  0
   13.6270  -11.6759    0.0000 C   0  0  2  0  0  0
   12.9629  -12.1616    0.0000 C   0  0
   13.2194  -12.9457    0.0000 C   0  0
   14.0444  -12.9440    0.0000 N   0  0
   14.2976  -12.1589    0.0000 C   0  0
   14.4518  -13.6616    0.0000 C   0  0
   14.0343  -14.3732    0.0000 C   0  0
   15.2767  -13.6673    0.0000 O   0  0
   14.4418  -15.0905    0.0000 C   0  0
  1  2  2  0
  2  3  1  0
  3  6  2  0
  5  4  2  0
  4  1  1  0
  5  6  1  0
  6  7  1  0
  7  8  1  0
  8  9  1  0
  9 10  1  0
 10  5  1  0
  2 11  1  0
  8 12  2  0
  9 13  1  0
 13 14  1  0
 14 15  2  0
 15 16  1  0
 16 17  2  0
 17 18  1  0
 18 19  2  0
 19 14  1  0
 11 20  1  0
 20 21  2  0
 21 22  1  0
 22 23  2  0
 23 24  1  0
 24 25  2  0
 25 20  1  0
 23 26  1  0
 26 27  1  0
 26 31  1  0
 27 28  1  0
 28 29  1  0
 29 30  1  0
 30 31  1  0
 29 32  1  0
 21 33  1  0
 33 34  1  0
 35  7  1  1
 35 36  1  0
 36 37  1  0
 37 38  1  0
 38 39  1  0
 39 35  1  0
 38 40  1  0
 40 41  1  0
 40 42  2  0
 41 43  2  0
M  END
> <chembl_id>
CHEMBL3087204

$$$$

  SciTegic06051313552D

 28 32  0  0  0  0            999 V2000
    9.2642   -3.8672    0.0000 C   0  0
    9.2631   -4.6867    0.0000 C   0  0
    9.9711   -5.0957    0.0000 C   0  0
   10.6808   -4.6862    0.0000 C   0  0
   10.6780   -3.8635    0.0000 C   0  0
    9.9693   -3.4583    0.0000 C   0  0
   11.3586   -3.4114    0.0000 C   0  0
   12.1259   -3.6926    0.0000 C   0  0
   12.6304   -3.0498    0.0000 C   0  0
   12.1745   -2.3718    0.0000 N   0  0
   11.3890   -2.5948    0.0000 N   0  0
   12.5801   -1.6624    0.0000 C   0  0
   13.4449   -3.0799    0.0000 C   0  0
   14.6910   -2.4166    0.0000 C   0  0
   13.8763   -2.3898    0.0000 C   0  0
   13.3951   -1.6619    0.0000 C   0  0
   13.8006   -0.9533    0.0000 C   0  0
   13.3889   -0.2464    0.0000 C   0  0
   12.5676   -0.2525    0.0000 C   0  0
   12.1658   -0.9617    0.0000 C   0  0
   13.8270   -3.8008    0.0000 C   0  0
   15.0760   -3.1397    0.0000 C   0  0
   14.6420   -3.8318    0.0000 C   0  0
   15.0244   -4.5516    0.0000 C   0  0
   15.8405   -4.5805    0.0000 C   0  0
   16.2728   -3.8836    0.0000 C   0  0
   15.8880   -3.1666    0.0000 C   0  0
    8.5550   -5.0947    0.0000 F   0  0
  1  2  2  0
  2  3  1  0
  3  4  2  0
  4  5  1  0
  5  6  2  0
  6  1  1  0
  7  8  1  0
  8  9  1  0
  9 10  1  0
 10 11  1  0
 11  7  2  0
  5  7  1  0
 10 12  1  0
 13 21  2  0
 22 14  1  0
 14 15  2  0
 15 13  1  0
  9 13  1  0
 12 16  2  0
 16 17  1  0
 17 18  2  0
 18 19  1  0
 19 20  2  0
 20 12  1  0
 23 21  1  0
 22 23  1  0
 23 24  2  0
 24 25  1  0
 25 26  2  0
 26 27  1  0
 27 22  2  0
  2 28  1  0
M  END
> <chembl_id>
CHEMBL2325096

$$$$

  SciTegic12171313022D

 28 31  0  0  0  0            999 V2000
    3.4324  -19.1338    0.0000 C   0  0
    3.4313  -19.9533    0.0000 C   0  0
    4.1393  -20.3623    0.0000 N   0  0
    4.8490  -19.9529    0.0000 C   0  0
    4.8462  -19.1302    0.0000 N   0  0
    4.1375  -18.7249    0.0000 C   0  0
    2.7246  -18.7254    0.0000 Cl  0  0
    4.1356  -17.9078    0.0000 C   0  0
    4.7953  -17.4255    0.0000 C   0  0
    4.5404  -16.6490    0.0000 N   0  0
    3.4731  -17.4294    0.0000 C   0  0
    3.7260  -16.6524    0.0000 C   0  0
    3.1800  -16.0468    0.0000 C   0  0
    2.3810  -16.2171    0.0000 C   0  0
    2.1309  -16.9984    0.0000 C   0  0
    2.6786  -17.6006    0.0000 C   0  0
    5.5573  -20.3603    0.0000 N   0  0
    6.2644  -19.9506    0.0000 C   0  0
    6.9694  -20.3586    0.0000 C   0  0
    7.6760  -19.9495    0.0000 C   0  0
    7.6752  -19.1315    0.0000 C   0  0
    6.9619  -18.7242    0.0000 C   0  0
    6.2582  -19.1355    0.0000 C   0  0
    6.9577  -17.9070    0.0000 N   0  0
    7.6633  -17.4948    0.0000 C   0  0
    7.6591  -16.6776    0.0000 C   0  0
    8.3731  -17.8998    0.0000 O   0  0
    8.3648  -16.2654    0.0000 C   0  0
  1  2  2  0
  2  3  1  0
  3  4  2  0
  4  5  1  0
  5  6  2  0
  6  1  1  0
  1  7  1  0
  8  9  2  0
  9 10  1  0
 10 12  1  0
 11  8  1  0
  6  8  1  0
 11 12  2  0
 12 13  1  0
 13 14  2  0
 14 15  1  0
 15 16  2  0
 16 11  1  0
  4 17  1  0
 17 18  1  0
 18 19  2  0
 19 20  1  0
 20 21  2  0
 21 22  1  0
 22 23  2  0
 23 18  1  0
 22 24  1  0
 24 25  1  0
 25 26  1  0
 25 27  2  0
 26 28  2  0
M  END
> <chembl_id>
CHEMBL2426281

$$$$

  SciTegic06061310022D

 40 46  0  0  0  0            999 V2000
    2.1431   -7.7092    0.0000 N   0  0
    2.6952   -8.3223    0.0000 C   0  0
    2.4402   -9.1069    0.0000 N   0  0
    1.3362   -7.8807    0.0000 C   0  0
    1.0812   -8.6653    0.0000 C   0  0
    1.6333   -9.2784    0.0000 C   0  0
    1.2208   -9.9929    0.0000 N   0  0
    0.4138   -9.8213    0.0000 N   0  0
    0.3276   -9.0009    0.0000 C   0  0
    0.7841   -7.2676    0.0000 N   0  0
   -0.3869   -8.5884    0.0000 C   0  0
   -1.1014   -9.0009    0.0000 C   0  0
   -1.1014   -7.3509    0.0000 C   0  0
   -0.3869   -7.7634    0.0000 C   0  0
    1.5563  -10.7465    0.0000 C   0  0  1  0  0  0
    2.3768  -10.8328    0.0000 C   0  0
    2.7124  -11.5865    0.0000 C   0  0
    2.2274  -12.2539    0.0000 C   0  0  1  0  0  0
    1.4070  -12.1677    0.0000 C   0  0
    1.0714  -11.4140    0.0000 C   0  0
    2.5630  -13.0076    0.0000 N   0  0
    3.3835  -13.0938    0.0000 C   0  0
    3.7190  -13.8475    0.0000 C   0  0
    3.2341  -14.5149    0.0000 O   0  0
    2.4136  -14.4287    0.0000 C   0  0
    2.0781  -13.6750    0.0000 C   0  0
   -1.8159   -7.7634    0.0000 C   0  0
   -1.8159   -8.5884    0.0000 C   0  0
   -2.6005   -8.8433    0.0000 N   0  0
   -3.0854   -8.1759    0.0000 C   0  0
   -2.6005   -7.5084    0.0000 N   0  0
   -3.9104   -8.1759    0.0000 C   0  0
   -4.3229   -7.4614    0.0000 C   0  0
   -5.1479   -7.4614    0.0000 C   0  0
   -5.5604   -6.7469    0.0000 C   0  0
   -5.1479   -6.0325    0.0000 C   0  0
   -4.3229   -6.0325    0.0000 C   0  0
   -3.9104   -6.7469    0.0000 C   0  0
   -3.0854   -6.7469    0.0000 O   0  0
   -2.6729   -6.0325    0.0000 C   0  0
 16 17  1  0
 17 18  1  0
 18 19  1  0
 19 20  1  0
 15  7  1  1
 21 22  1  0
  4  1  1  0
  4 10  1  0
  5  6  1  0
 11 12  2  0
 12 28  1  0
 21 26  1  0
 22 23  1  0
 23 24  1  0
 24 25  1  0
 25 26  1  0
 18 21  1  6
 27 28  2  0
  2  3  1  0
 27 13  1  0
  3  6  2  0
 13 14  2  0
 14 11  1  0
 28 29  1  0
 29 30  1  0
 30 31  2  0
 31 27  1  0
  9 11  1  0
 30 32  1  0
 15 16  1  0
 32 33  1  0
  1  2  2  0
 33 34  2  0
  5  4  2  0
 34 35  1  0
  6  7  1  0
 35 36  2  0
  7  8  1  0
 36 37  1  0
  8  9  2  0
 37 38  2  0
 38 33  1  0
  9  5  1  0
 38 39  1  0
 15 20  1  0
 39 40  1  0
M  END
> <chembl_id>
CHEMBL437584

$$$$

  SciTegic11131810292D

 34 37  0  0  1  0            999 V2000
   10.1394   -1.3343    0.0000 C   0  0
    9.0990   -0.7364    0.0000 N   0  0
    9.0969    0.4636    0.0000 C   0  0
    7.8003   -1.4887    0.0000 C   0  0
    6.4990   -0.7409    0.0000 C   0  0
    5.2003   -1.4932    0.0000 C   0  0
    3.8990   -0.7455    0.0000 C   0  0
    3.8969    0.4545    0.0000 O   0  0
    2.6003   -1.4977    0.0000 N   0  0
    1.2990   -0.7500    0.0000 C   0  0
    1.2990    0.7500    0.0000 C   0  0
    0.0000    1.5000    0.0000 C   0  0
    0.0000    3.0000    0.0000 C   0  0
    1.2982    3.7531    0.0000 N   0  0
    1.2960    5.2539    0.0000 C   0  0
    2.5925    6.0085    0.0000 C   0  0
    2.5873    7.5085    0.0000 C   0  0
    1.2856    8.2540    0.0000 C   0  0
    1.2815    9.4540    0.0000 F   0  0
   -0.0108    7.4995    0.0000 C   0  0
   -1.0521    8.0959    0.0000 Cl  0  0
   -0.0056    5.9995    0.0000 C   0  0
   -1.2991    3.7500    0.0000 N   0  0
   -2.5981    3.0000    0.0000 C   0  0
   -2.5981    1.5000    0.0000 N   0  0
   -1.2990    0.7500    0.0000 C   0  0
   -1.2990   -0.7500    0.0000 C   0  0
    0.0000   -1.5000    0.0000 C   0  0
   -0.0031   -3.0008    0.0000 O   0  0
   -1.3039   -3.7494    0.0000 C   0  0  1  0  0  0
   -1.4469   -5.2298    0.0000 C   0  0
   -2.9152   -5.5365    0.0000 C   0  0
   -3.6607   -4.2349    0.0000 O   0  0
   -2.6531   -3.1237    0.0000 C   0  0
  1  2  1  0
  2  3  1  0
  2  4  1  0
  4  5  1  0
  5  6  2  0
  6  7  1  0
  7  8  2  0
  7  9  1  0
  9 10  1  0
 10 11  2  0
 11 12  1  0
 12 13  2  0
 13 14  1  0
 14 15  1  0
 15 16  2  0
 16 17  1  0
 17 18  2  0
 18 19  1  0
 18 20  1  0
 20 21  1  0
 20 22  2  0
 22 15  1  0
 13 23  1  0
 23 24  2  0
 24 25  1  0
 25 26  2  0
 26 12  1  0
 26 27  1  0
 27 28  2  0
 28 10  1  0
 28 29  1  0
 30 29  1  1
 30 31  1  0
 31 32  1  0
 32 33  1  0
 33 34  1  0
 34 30  1  0
M  END
> <chembl_id>
CHEMBL1173655

$$$$

  SciTegic12131016252D

 21 23  0  0  0  0            999 V2000
   -5.3056   -6.4958    0.0000 N   0  0
   -5.3068   -7.3232    0.0000 C   0  0
   -4.5919   -7.7360    0.0000 N   0  0
   -4.5937   -6.0830    0.0000 C   0  0
   -3.8784   -6.4922    0.0000 C   0  0
   -3.8781   -7.3232    0.0000 C   0  0
   -3.0876   -7.5798    0.0000 N   0  0
   -2.5993   -6.9073    0.0000 N   0  0
   -3.0881   -6.2352    0.0000 C   0  0
   -2.6779   -5.5220    0.0000 C   0  0
   -1.8518   -5.5217    0.0000 C   0  0
   -1.4408   -4.8073    0.0000 C   0  0
   -1.8547   -4.0927    0.0000 C   0  0
   -2.6840   -4.0969    0.0000 C   0  0
   -3.0913   -4.8119    0.0000 C   0  0
   -2.6750   -8.2934    0.0000 C   0  0
   -3.0875   -9.0079    0.0000 C   0  0
   -1.8500   -8.2933    0.0000 C   0  0
   -4.5962   -5.2580    0.0000 N   0  0
   -0.6158   -4.8061    0.0000 O   0  0
   -1.4446   -3.3768    0.0000 Br  0  0
  5  6  1  0
 10 11  2  0
 11 12  1  0
  2  3  1  0
 12 13  2  0
  3  6  2  0
 13 14  1  0
  1  2  2  0
 14 15  2  0
 15 10  1  0
  9 10  1  0
  5  4  2  0
  7 16  1  0
  6  7  1  0
 16 17  1  0
  7  8  1  0
 16 18  1  0
  8  9  2  0
  4 19  1  0
  9  5  1  0
 12 20  1  0
  4  1  1  0
 13 21  1  0
M  END
> <chembl_id>
CHEMBL1241578

$$$$

  SciTegic10011413212D

 43 48  0  0  0  0            999 V2000
   15.1304   -6.5499    0.0000 C   0  0
   15.1304   -7.3671    0.0000 C   0  0
   15.8357   -7.7716    0.0000 N   0  0
   16.5410   -7.3671    0.0000 C   0  0
   16.5410   -6.5499    0.0000 C   0  0
   15.8357   -6.1372    0.0000 N   0  0
   15.8357   -8.5888    0.0000 C   0  0
   15.8361   -5.3208    0.0000 C   0  0
   16.5455   -4.9128    0.0000 C   0  0
   16.5458   -4.0964    0.0000 C   0  0
   15.8376   -3.6870    0.0000 C   0  0
   15.1275   -4.1000    0.0000 C   0  0
   15.1307   -4.9151    0.0000 C   0  0
   14.4184   -3.6939    0.0000 O   0  0
   13.7121   -4.1050    0.0000 C   0  0
   15.8365   -2.8698    0.0000 N   0  0
   16.5437   -2.4603    0.0000 C   0  0
   17.2502   -2.8721    0.0000 N   0  0
   17.2430   -1.2377    0.0000 C   0  0
   16.5393   -1.6489    0.0000 N   0  0
   17.9612   -2.4618    0.0000 C   0  0
   17.9563   -1.6452    0.0000 C   0  0
   18.5942   -1.1264    0.0000 C   0  0
   18.6085   -2.9689    0.0000 N   0  0
   19.4078   -2.7783    0.0000 C   0  0
   18.4034   -0.3318    0.0000 O   0  0
   19.9243   -3.4116    0.0000 O   0  0
   18.4360   -3.7633    0.0000 C   0  0
   17.6559   -4.0104    0.0000 C   0  0
   17.4811   -4.8079    0.0000 C   0  0
   18.0856   -5.3591    0.0000 C   0  0
   18.8674   -5.1074    0.0000 C   0  0
   19.0385   -4.3105    0.0000 C   0  0
   19.4735   -5.6556    0.0000 N   0  0
   19.3017   -6.4545    0.0000 C   0  0
   19.9077   -7.0028    0.0000 C   0  0
   18.5239   -6.7053    0.0000 O   0  0
   19.7359   -7.8017    0.0000 C   0  0
   19.3875   -1.3016    0.0000 N   0  0
   19.7550   -2.0340    0.0000 C   0  0
   20.5652   -1.9108    0.0000 C   0  0
   20.6984   -1.1022    0.0000 C   0  0
   19.9705   -0.7258    0.0000 C   0  0
  1  2  1  0
  1  6  1  0
  2  3  1  0
  3  4  1  0
  4  5  1  0
  5  6  1  0
  3  7  1  0
  8  9  2  0
  9 10  1  0
 10 11  2  0
 11 12  1  0
 12 13  2  0
 13  8  1  0
  6  8  1  0
 12 14  1  0
 14 15  1  0
 11 16  1  0
 16 17  1  0
 17 18  2  0
 18 21  1  0
 22 19  1  0
 19 20  2  0
 20 17  1  0
 21 22  2  0
 22 23  1  0
 21 24  1  0
 23 39  1  0
 24 25  1  0
 25 40  1  0
 23 26  2  0
 25 27  2  0
 28 29  2  0
 29 30  1  0
 30 31  2  0
 31 32  1  0
 32 33  2  0
 33 28  1  0
 24 28  1  0
 32 34  1  0
 34 35  1  0
 35 36  1  0
 35 37  2  0
 36 38  2  0
 39 40  1  0
 40 41  1  0
 41 42  1  0
 42 43  1  0
 43 39  1  0
M  END
> <chembl_id>
CHEMBL3219126

$$$$

  SciTegic05221516342D

 39 42  0  0  0  0            999 V2000
   16.7296  -13.4682    0.0000 C   0  0
   17.1423  -12.7591    0.0000 C   0  0
   16.7296  -12.0459    0.0000 C   0  0
   17.1423  -11.3368    0.0000 C   0  0
   17.1423  -14.1773    0.0000 O   0  0
   15.9124  -13.4682    0.0000 N   0  0
   17.9595  -12.7591    0.0000 F   0  0
   17.9595  -11.3368    0.0000 N   0  0
   18.3722  -10.6277    0.0000 C   0  0
   18.3722  -12.0459    0.0000 C   0  0
   14.2698  -16.3087    0.0000 N   0  0
   13.4526  -16.3087    0.0000 C   0  0
   13.0399  -15.5996    0.0000 N   0  0
   13.4526  -14.8864    0.0000 C   0  0
   14.2698  -14.8864    0.0000 C   0  0
   14.6825  -14.1773    0.0000 C   0  0
   15.4997  -14.1773    0.0000 C   0  0
   15.9124  -14.8864    0.0000 C   0  0
   15.4997  -15.5996    0.0000 C   0  0
   14.6825  -15.5996    0.0000 C   0  0
   16.7296  -14.8864    0.0000 O   0  0
   17.1423  -15.5996    0.0000 C   0  0
   17.9595  -15.5996    0.0000 C   0  0
   13.0399  -14.1773    0.0000 N   0  0
   12.2227  -14.1773    0.0000 C   0  0
   11.8099  -14.8864    0.0000 C   0  0
   10.9928  -14.8864    0.0000 C   0  0
   10.5800  -14.1773    0.0000 C   0  0
   10.9928  -13.4682    0.0000 C   0  0
   11.8099  -13.4682    0.0000 C   0  0
    9.7628  -14.1773    0.0000 O   0  0
    9.3501  -13.4682    0.0000 C   0  0
    8.5329  -13.4682    0.0000 C   0  0
    8.1202  -14.1773    0.0000 C   0  0
    7.3030  -14.1773    0.0000 C   0  0
    6.8947  -13.4682    0.0000 C   0  0
    7.3030  -12.7591    0.0000 C   0  0
    8.1202  -12.7591    0.0000 N   0  0
   10.5800  -15.5996    0.0000 Cl  0  0
  1  2  1  0
  2  3  2  0
  3  4  1  0
  1  5  2  0
  1  6  1  0
  2  7  1  0
  8  9  1  0
  8 10  1  0
  4  8  1  0
 11 12  1  0
 12 13  2  0
 13 14  1  0
 14 15  2  0
 15 16  1  0
 16 17  2  0
 17 18  1  0
 18 19  2  0
 19 20  1  0
 11 20  2  0
 15 20  1  0
 22 23  1  0
 21 22  1  0
 18 21  1  0
 25 26  1  0
 26 27  2  0
 27 28  1  0
 28 29  2  0
 29 30  1  0
 25 30  2  0
 31 32  1  0
 33 34  1  0
 34 35  2  0
 35 36  1  0
 36 37  2  0
 37 38  1  0
 33 38  2  0
 32 33  1  0
 28 31  1  0
 27 39  1  0
 24 25  1  0
 14 24  1  0
  6 17  1  0
M  END
> <chembl_id>
CHEMBL3357637

$$$$

  SciTegic03161210572D

 36 40  0  0  0  0            999 V2000
   -4.1306  -12.1125    0.0000 C   0  0
   -4.1318  -12.9398    0.0000 C   0  0
   -3.4169  -13.3527    0.0000 C   0  0
   -2.7005  -12.9394    0.0000 C   0  0
   -2.7034  -12.1088    0.0000 C   0  0
   -3.4187  -11.6997    0.0000 C   0  0
   -1.9877  -13.3499    0.0000 N   0  0
   -1.9884  -14.1759    0.0000 C   0  0
   -1.2774  -14.5872    0.0000 C   0  0
   -0.5611  -14.1771    0.0000 N   0  0
   -0.5604  -13.3511    0.0000 C   0  0
   -1.2760  -12.9353    0.0000 C   0  0
   -4.8452  -11.7001    0.0000 O   0  0
   -5.5595  -12.1128    0.0000 C   0  0
   -6.2759  -11.7005    0.0000 F   0  0
   -5.5593  -12.9378    0.0000 F   0  0
   -6.2792  -12.5208    0.0000 F   0  0
   -3.4212  -10.8747    0.0000 N   0  0
   -2.7080  -10.4601    0.0000 C   0  0
   -1.9944  -10.8728    0.0000 N   0  0
   -1.2817  -10.4589    0.0000 C   0  0
   -1.2837   -9.6330    0.0000 C   0  0
   -2.0044   -9.2228    0.0000 C   0  0
   -2.7142   -9.6391    0.0000 N   0  0
   -0.5250  -10.7950    0.0000 C   0  0
   -0.4634  -11.6177    0.0000 C   0  0
    0.2384  -10.4821    0.0000 N   0  0
    0.1524  -14.5912    0.0000 C   0  0
    0.7718  -11.1114    0.0000 C   0  0
    0.3368  -11.8099    0.0000 C   0  0
    0.7220  -12.5318    0.0000 C   0  0
    1.5437  -12.5616    0.0000 N   0  0
    1.9787  -11.8631    0.0000 C   0  0
    1.5920  -11.1349    0.0000 C   0  0
    0.2849  -13.2315    0.0000 O   0  0
    0.4339   -9.6806    0.0000 C   0  0
  4  5  1  0
  6 18  1  0
  2  3  1  0
 18 19  1  0
  5  6  2  0
 19 20  2  0
  7 12  1  0
 20 21  1  0
  8  9  1  0
 21 22  2  0
  9 10  1  0
 22 23  1  0
 10 11  1  0
 23 24  2  0
 24 19  1  0
 29 27  1  0
 11 12  1  0
  4  7  1  0
 26 30  1  0
  6  1  1  0
 25 26  2  0
 27 25  1  0
 21 25  1  0
  1 13  1  0
 10 28  1  0
 29 30  2  0
  7  8  1  0
 13 14  1  0
  1  2  2  0
 14 15  1  0
  3  4  2  0
 14 16  1  0
 29 34  1  0
 30 31  1  0
 31 32  1  0
 32 33  1  0
 33 34  1  0
 31 35  2  0
 14 17  1  0
 27 36  1  0
M  END
> <chembl_id>
CHEMBL1933582

$$$$

  SciTegic04301217312D

 20 21  0  0  0  0            999 V2000
    8.2000  -10.3708    0.0000 N   0  0
    8.9145   -9.9583    0.0000 N   0  0
    7.4855   -9.9583    0.0000 C   0  0
    6.7711  -10.3708    0.0000 C   0  0
    7.4855   -9.1333    0.0000 O   0  0
    9.6289  -10.3708    0.0000 C   0  0
   10.3439   -9.9581    0.0000 C   0  0
   11.1305  -10.2003    0.0000 C   0  0
   11.6087   -9.5280    0.0000 C   0  0
   11.1172   -8.8654    0.0000 C   0  0
   10.3352   -9.1282    0.0000 S   0  0
    5.9815  -10.1327    0.0000 C   0  0
    5.5071  -10.8076    0.0000 N   0  0
    6.0024  -11.4674    0.0000 C   0  0
    6.7829  -11.2001    0.0000 S   0  0
    5.7599  -12.2560    0.0000 S   0  0
    5.7121   -9.3529    0.0000 N   0  0
    4.6822  -10.8206    0.0000 C   0  0
    4.2585  -10.1126    0.0000 C   0  0
    3.4336  -10.1256    0.0000 C   0  0
  9 10  2  0
 10 11  1  0
 11  7  1  0
  4 12  2  0
  2  6  2  0
  1  2  1  0
  6  7  1  0
  7  8  2  0
 12 13  1  0
 13 14  1  0
 14 15  1  0
 15  4  1  0
  3  4  1  0
 14 16  2  0
 12 17  1  0
  3  5  2  0
 13 18  1  0
  1  3  1  0
 18 19  1  0
  8  9  1  0
 19 20  2  0
M  END
> <chembl_id>
CHEMBL1944929

$$$$

  SciTegic12201610162D

 29 33  0  0  0  0            999 V2000
   -1.2964    1.4973    0.0000 N   0  0
   -2.6111    0.7486    0.0000 C   0  0
   -2.6111   -0.7486    0.0000 C   0  0
   -1.2964   -1.4973    0.0000 C   0  0
    0.0000   -0.7486    0.0000 C   0  0
    1.2964   -1.4973    0.0000 C   0  0
    2.5929   -0.7486    0.0000 C   0  0
    2.5929    0.7486    0.0000 C   0  0
    1.2964    1.4973    0.0000 C   0  0
    0.0000    0.7486    0.0000 C   0  0
    3.8926   -1.4991    0.0000 C   0  0
    6.5713   -3.5330    0.0000 N   0  0
    5.1023   -3.8555    0.0000 N   0  0
    4.6348   -5.2756    0.0000 C   0  0
    5.6248   -6.4077    0.0000 N   0  0
    7.1112   -6.0909    0.0000 C   0  0
    7.5787   -4.6709    0.0000 C   0  0
    2.6808   -3.8645    0.0000 N   0  0
    3.1415   -5.2638    0.0000 N   0  0
    3.8936   -2.9999    0.0000 C   0  0
    9.0485   -4.3679    0.0000 C   0  0
    9.5210   -2.9441    0.0000 C   0  0
   10.9901   -2.6412    0.0000 C   0  0
   11.9869   -3.7621    0.0000 C   0  0
   11.5146   -5.1858    0.0000 C   0  0
   10.0455   -5.4886    0.0000 C   0  0
   13.1622   -3.5199    0.0000 F   0  0
    4.9317   -0.8987    0.0000 F   0  0
    3.8924   -0.2991    0.0000 F   0  0
  1  2  2  0
  2  3  1  0
  3  4  2  0
  4  5  1  0
  5  6  2  0
  6  7  1  0
  7  8  2  0
  8  9  1  0
  9 10  2  0
  1 10  1  0
  5 10  1  0
 12 13  1  0
 13 14  1  0
 14 15  1  0
 15 16  2  0
 16 17  1  0
 12 17  2  0
 18 19  1  0
 18 20  2  0
 13 20  1  0
 14 19  2  0
 21 22  1  0
 22 23  2  0
 23 24  1  0
 24 25  2  0
 25 26  1  0
 21 26  2  0
 24 27  1  0
 17 21  1  0
 11 20  1  0
  7 11  1  0
 11 28  1  0
 11 29  1  0
M  END
> <chembl_id>
CHEMBL3797579

$$$$

  SciTegic12121614122D

 45 50  0  0  0  0            999 V2000
   -1.2913    7.5063    0.0000 C   0  0
   -2.5882    8.2616    0.0000 C   0  0
   -2.5845    9.4615    0.0000 C   0  0
   -0.2500    8.1028    0.0000 O   0  0
   -1.2959    6.0055    0.0000 N   0  0
    0.0011    5.2503    0.0000 C   0  0
   -0.0014    3.7503    0.0000 C   0  0
    1.2964    2.9980    0.0000 C   0  0
    2.5967    3.7460    0.0000 C   0  0
    2.5992    5.2460    0.0000 C   0  0
    1.3014    5.9981    0.0000 C   0  0
   -2.6111    0.7486    0.0000 C   0  0
   -1.2964    1.4973    0.0000 N   0  0
    0.0000    0.7486    0.0000 C   0  0
    0.0000   -0.7486    0.0000 C   0  0
   -1.2964   -1.4973    0.0000 C   0  0
   -2.6111   -0.7486    0.0000 N   0  0
    1.2964   -1.4973    0.0000 C   0  0
    2.5929   -0.7486    0.0000 C   0  0
    2.5929    0.7486    0.0000 C   0  0
    1.2964    1.4973    0.0000 N   0  0
    3.8926   -1.4990    0.0000 C   0  0
    5.1929   -0.7510    0.0000 C   0  0
    6.4908   -1.5029    0.0000 C   0  0
    6.4885   -3.0029    0.0000 C   0  0
    5.1883   -3.7510    0.0000 C   0  0
    3.8904   -2.9990    0.0000 C   0  0
    3.6321    1.3486    0.0000 O   0  0
    1.2964   -2.6973    0.0000 C   0  0
   -3.9122    1.4966    0.0000 N   0  0
   -5.2109    0.7445    0.0000 C   0  0
   -6.5125    1.4901    0.0000 C   0  0
   -7.8091    0.7359    0.0000 C   0  0
   -7.8042   -0.7641    0.0000 C   0  0
   -6.5027   -1.5098    0.0000 C   0  0
   -5.2061   -0.7556    0.0000 C   0  0
   -9.1014   -1.5188    0.0000 N   0  0
  -10.4041   -0.7752    0.0000 C   0  0
  -11.6995   -1.5315    0.0000 C   0  0
  -11.6922   -3.0315    0.0000 N   0  0
  -10.3895   -3.7751    0.0000 C   0  0
   -9.0942   -3.0188    0.0000 C   0  0
  -12.7285   -3.6365    0.0000 C   0  0
   -6.5206    2.9910    0.0000 O   0  0
   -7.5627    3.5860    0.0000 C   0  0
  1  2  1  0
  2  3  2  0
  1  4  2  0
  1  5  1  0
  6  7  1  0
  7  8  2  0
  8  9  1  0
  9 10  2  0
 10 11  1  0
  6 11  2  0
 12 13  1  0
 13 14  2  0
 14 15  1  0
 15 16  2  0
 16 17  1  0
 12 17  2  0
 18 19  2  0
 19 20  1  0
 20 21  1  0
 14 21  1  0
 15 18  1  0
 22 23  1  0
 23 24  2  0
 24 25  1  0
 25 26  2  0
 26 27  1  0
 22 27  2  0
 19 22  1  0
 20 28  2  0
 18 29  1  0
 31 32  1  0
 32 33  2  0
 33 34  1  0
 34 35  2  0
 35 36  1  0
 31 36  2  0
 37 38  1  0
 38 39  1  0
 39 40  1  0
 40 41  1  0
 41 42  1  0
 37 42  1  0
 40 43  1  0
 34 37  1  0
 44 45  1  0
 32 44  1  0
 30 31  1  0
 12 30  1  0
  8 21  1  0
  5  6  1  0
M  END
> <chembl_id>
CHEMBL3753011

$$$$

  SciTegic01161211222D

 23 25  0  0  0  0            999 V2000
   17.2486  -20.8708    0.0000 C   0  0
   17.2474  -21.6982    0.0000 C   0  0
   17.9622  -22.1110    0.0000 C   0  0
   17.9604  -20.4580    0.0000 C   0  0
   18.6758  -20.8672    0.0000 C   0  0
   18.6766  -21.6940    0.0000 C   0  0
   19.3919  -22.1050    0.0000 N   0  0
   20.1069  -21.6902    0.0000 C   0  0
   20.1021  -20.8602    0.0000 N   0  0
   19.3862  -20.4530    0.0000 C   0  0
   19.3819  -19.6280    0.0000 N   0  0
   20.0941  -19.2117    0.0000 C   0  0
   20.8098  -19.6259    0.0000 C   0  0
   21.5216  -19.2103    0.0000 C   0  0
   21.5176  -18.3845    0.0000 C   0  0
   20.7960  -17.9759    0.0000 C   0  0
   20.0871  -18.3939    0.0000 C   0  0
   16.5340  -20.4585    0.0000 O   0  0
   15.8196  -20.8711    0.0000 C   0  0
   22.2380  -19.6194    0.0000 C   0  0
   22.9500  -20.0292    0.0000 C   0  0
   16.5326  -22.1101    0.0000 O   0  0
   15.8185  -21.6970    0.0000 C   0  0
 10 11  1  0
  2  3  1  0
 11 12  1  0
  5  6  1  0
 12 13  2  0
  3  6  2  0
 13 14  1  0
  6  7  1  0
 14 15  2  0
  1  2  2  0
 15 16  1  0
  7  8  2  0
 16 17  2  0
 17 12  1  0
  5  4  2  0
  1 18  1  0
  8  9  1  0
 18 19  1  0
  4  1  1  0
 14 20  1  0
  9 10  2  0
 20 21  3  0
 10  5  1  0
  2 22  1  0
 22 23  1  0
M  END
> <chembl_id>
CHEMBL304929

$$$$

  SciTegic12201612132D

 41 45  0  0  0  0            999 V2000
   -1.0028    1.5132    0.0000 C   0  0
   -2.3155    0.7475    0.0000 C   0  0
   -2.3155   -0.7475    0.0000 C   0  0
   -1.0028   -1.5132    0.0000 N   0  0
    0.2917    0.7475    0.0000 C   0  0
    0.2917   -0.7475    0.0000 C   0  0
    1.7138   -1.2033    0.0000 N   0  0
    2.5889    0.0182    0.0000 C   0  0
    1.7138    1.2033    0.0000 C   0  0
   -3.6217    1.4865    0.0000 N   0  0
   -4.9153    0.7255    0.0000 C   0  0
   -6.2216    1.4644    0.0000 C   0  0
   -7.5156    0.7056    0.0000 C   0  0
   -8.8197    1.4467    0.0000 C   0  0
   -8.8299    2.9467    0.0000 C   0  0
   -7.5360    3.7055    0.0000 C   0  0
   -6.2319    2.9644    0.0000 C   0  0
   -7.5074   -0.4944    0.0000 C   0  0
   -7.5431    5.2063    0.0000 N   0  0
   -6.2474    5.9637    0.0000 C   0  0
   -6.2546    7.4645    0.0000 C   0  0
   -5.2052    5.3690    0.0000 O   0  0
   -4.9607    8.2234    0.0000 C   0  0
   -4.9709    9.7234    0.0000 C   0  0
   -6.2750   10.4646    0.0000 C   0  0
   -7.5689    9.7058    0.0000 C   0  0
   -7.5587    8.2058    0.0000 C   0  0
    4.0872    0.0382    0.0000 C   0  0
    4.7008   -0.9930    0.0000 O   0  0
    4.8208    1.3475    0.0000 O   0  0
    6.0207    1.3637    0.0000 C   0  0
   -8.8737   10.4473    0.0000 C   0  0
   -8.8826   11.6473    0.0000 F   0  0
   -9.9086    9.8400    0.0000 F   0  0
   -9.9172   11.0398    0.0000 F   0  0
   -3.6763   10.4826    0.0000 N   0  0
   -2.3197    9.8729    0.0000 C   0  0
   -1.3254   10.9960    0.0000 N   0  0
   -2.0862   12.2887    0.0000 C   0  0
   -3.5508   11.9646    0.0000 C   0  0
   -1.6074   13.3890    0.0000 C   0  0
  5  1  1  0
  1  2  2  0
  2  3  1  0
  3  4  2  0
  4  6  1  0
  5  6  2  0
  6  7  1  0
  7  8  1  0
  8  9  2  0
  9  5  1  0
  2 10  1  0
 10 11  1  0
 11 12  1  0
 12 13  2  0
 13 14  1  0
 14 15  2  0
 15 16  1  0
 16 17  2  0
 17 12  1  0
 13 18  1  0
 16 19  1  0
 19 20  1  0
 20 21  1  0
 20 22  2  0
 21 23  2  0
 23 24  1  0
 24 25  2  0
 25 26  1  0
 26 27  2  0
 27 21  1  0
  8 28  1  0
 28 29  2  0
 28 30  1  0
 30 31  1  0
 26 32  1  0
 32 33  1  0
 32 34  1  0
 32 35  1  0
 24 36  1  0
 36 37  1  0
 37 38  2  0
 38 39  1  0
 39 40  2  0
 40 36  1  0
 39 41  1  0
M  END
> <chembl_id>
CHEMBL3808884

$$$$

  SciTegic12191611242D

 30 33  0  0  0  0            999 V2000
   -8.4598    0.3211    0.0000 C   0  0
   -7.2652    0.2078    0.0000 N   0  0
   -6.5020   -1.0835    0.0000 N   0  0
   -5.0380   -0.7567    0.0000 C   0  0
   -6.2729    1.3327    0.0000 C   0  0
   -4.9153    0.7255    0.0000 C   0  0
   -3.6217    1.4865    0.0000 N   0  0
   -2.3155    0.7475    0.0000 C   0  0
   -1.0028    1.5132    0.0000 N   0  0
    0.2917    0.7475    0.0000 C   0  0
    0.2917   -0.7475    0.0000 C   0  0
    1.7138   -1.2033    0.0000 C   0  0
    2.0907   -2.3426    0.0000 Cl  0  0
    2.5889    0.0182    0.0000 C   0  0
    1.7138    1.2033    0.0000 N   0  0
   -1.0028   -1.5132    0.0000 C   0  0
   -0.9971   -3.0138    0.0000 O   0  0
   -2.2935   -3.7700    0.0000 C   0  0
   -2.2878   -5.2708    0.0000 C   0  0  1  0  0  0
   -1.0692   -6.1235    0.0000 C   0  0
   -1.5244   -7.5527    0.0000 N   0  0
   -0.6391   -8.7615    0.0000 C   0  0
   -1.2435  -10.1353    0.0000 C   0  0
   -0.5345  -11.1034    0.0000 C   0  0
    0.5538   -8.6312    0.0000 O   0  0
   -3.0244   -7.5615    0.0000 C   0  0
   -3.4962   -6.1377    0.0000 C   0  0  2  0  0  0
   -4.9212   -5.6751    0.0000 C   0  0
   -5.8133   -6.4777    0.0000 O   0  0
   -2.3155   -0.7475    0.0000 N   0  0
  1  2  1  0
  2  3  1  0
  3  4  2  0
  2  5  1  0
  5  6  2  0
  4  6  1  0
  6  7  1  0
  7  8  1  0
  8  9  2  0
  9 10  1  0
 10 11  2  0
 11 12  1  0
 12 13  1  0
 12 14  2  0
 14 15  1  0
 10 15  1  0
 11 16  1  0
 16 17  1  0
 17 18  1  0
 19 18  1  1
 19 20  1  0
 20 21  1  0
 21 22  1  0
 22 23  1  0
 23 24  2  0
 22 25  2  0
 21 26  1  0
 26 27  1  0
 19 27  1  0
 27 28  1  6
 28 29  1  0
 16 30  2  0
  8 30  1  0
M  END
> <chembl_id>
CHEMBL3786647

$$$$

  SciTegic04151115542D

 22 25  0  0  0  0            999 V2000
   -5.1223    1.3375    0.0000 C   0  0
   -5.1234    0.5102    0.0000 C   0  0
   -4.4086    0.0973    0.0000 C   0  0
   -4.4104    1.7503    0.0000 C   0  0
   -3.6950    1.3412    0.0000 C   0  0
   -3.6943    0.5143    0.0000 C   0  0
   -2.9790    0.1034    0.0000 C   0  0
   -2.2639    0.5181    0.0000 C   0  0
   -2.2687    1.3481    0.0000 C   0  0
   -2.9846    1.7553    0.0000 C   0  0
   -1.5437    0.1113    0.0000 N   0  0
   -1.4542   -0.7089    0.0000 C   0  0
   -0.6466   -0.8772    0.0000 N   0  0
   -0.2368   -0.1611    0.0000 N   0  0
   -0.7913    0.4497    0.0000 C   0  0
   -2.0651   -1.2633    0.0000 S   0  0
   -0.6230    1.2574    0.0000 C   0  0
    0.1622    1.5109    0.0000 C   0  0
    0.3308    2.3177    0.0000 C   0  0
   -0.2849    2.8682    0.0000 N   0  0
   -1.0717    2.6063    0.0000 C   0  0
   -1.2365    1.8001    0.0000 C   0  0
 11 12  1  0
  2  3  1  0
  5  6  1  0
  3  6  2  0
  6  7  1  0
 12 13  1  0
 13 14  1  0
 14 15  2  0
 15 11  1  0
  8 11  1  0
  1  2  2  0
 12 16  2  0
  7  8  2  0
 15 17  1  0
  5  4  2  0
 17 18  2  0
  8  9  1  0
 18 19  1  0
  4  1  1  0
 19 20  2  0
  9 10  2  0
 20 21  1  0
 10  5  1  0
 21 22  2  0
 22 17  1  0
M  END
> <chembl_id>
CHEMBL1644616

$$$$

  SciTegic08011209522D

 38 42  0  0  0  0            999 V2000
   22.7444  -14.1458    0.0000 N   0  0
   22.7432  -14.9732    0.0000 C   0  0
   23.4581  -15.3860    0.0000 N   0  0
   23.4563  -13.7330    0.0000 C   0  0
   24.1716  -14.1422    0.0000 C   0  0
   24.1751  -14.9752    0.0000 C   0  0
   24.8942  -15.3865    0.0000 N   0  0
   25.6146  -14.9693    0.0000 C   0  0
   25.6112  -14.1363    0.0000 N   0  0
   24.8874  -13.7204    0.0000 C   0  0
   24.8982  -16.2081    0.0000 C   0  0
   24.1832  -16.6219    0.0000 C   0  0
   24.1851  -17.4462    0.0000 C   0  0
   24.9013  -17.8576    0.0000 C   0  0
   25.6170  -17.4387    0.0000 C   0  0
   25.6116  -16.6158    0.0000 C   0  0
   22.0284  -15.3851    0.0000 N   0  0
   22.0278  -16.2101    0.0000 C   0  0
   21.3129  -16.6205    0.0000 C   0  0
   21.3119  -17.4447    0.0000 C   0  0
   22.0266  -17.8586    0.0000 C   0  0
   22.7437  -17.4422    0.0000 C   0  0
   22.7412  -16.6194    0.0000 C   0  0
   26.3302  -15.3799    0.0000 O   0  0
   26.3340  -17.8467    0.0000 N   0  0
   26.3392  -18.6717    0.0000 C   0  0
   27.0562  -19.0797    0.0000 C   0  0
   25.6273  -19.0886    0.0000 O   0  0
   27.0614  -19.9047    0.0000 C   0  0
   22.0270  -18.6836    0.0000 N   0  0
   26.3244  -13.7215    0.0000 C   0  0
   21.3101  -19.0932    0.0000 C   0  0
   21.3086  -19.9146    0.0000 C   0  0
   22.0214  -20.3306    0.0000 N   0  0
   22.7375  -19.9189    0.0000 C   0  0
   22.7407  -19.0913    0.0000 C   0  0
   22.0187  -21.1556    0.0000 C   0  0
   20.5992  -16.2066    0.0000 C   0  0
 17 18  1  0
  6  7  1  0
 18 19  2  0
  7  8  1  0
 19 20  1  0
  8  9  1  0
 20 21  2  0
  9 10  1  0
 21 22  1  0
  5  6  1  0
 22 23  2  0
 23 18  1  0
  8 24  2  0
 11 12  2  0
 15 25  1  0
  2  3  1  0
 25 26  1  0
 12 13  1  0
 26 27  1  0
  3  6  2  0
 26 28  2  0
 13 14  2  0
 27 29  2  0
  1  2  2  0
 21 30  1  0
 14 15  1  0
  9 31  1  0
 30 32  1  0
  5  4  2  0
 15 16  2  0
 16 11  1  0
  7 11  1  0
  4  1  1  0
 30 36  1  0
 32 33  1  0
 33 34  1  0
 34 35  1  0
 35 36  1  0
  2 17  1  0
 34 37  1  0
  5 10  1  0
 19 38  1  0
M  END
> <chembl_id>
CHEMBL2029432

$$$$

  SciTegic02271217242D

 36 39  0  0  0  0            999 V2000
   -3.5958  -14.3417    0.0000 O   0  0
   -3.8083  -15.1417    0.0000 S   0  0
   -3.0093  -14.9257    0.0000 O   0  0
   -0.9919  -18.3860    0.0000 N   0  0
   -0.2755  -17.9727    0.0000 C   0  0
   -0.2784  -17.1422    0.0000 N   0  0
   -0.9937  -16.7330    0.0000 C   0  0
   -1.7068  -17.9732    0.0000 C   0  0
   -1.7055  -17.1443    0.0000 C   0  0
   -2.4935  -16.8869    0.0000 N   0  0
   -2.9818  -17.5568    0.0000 C   0  0
   -2.4955  -18.2281    0.0000 C   0  0
   -0.9956  -15.9080    0.0000 N   0  0
   -0.2820  -15.4940    0.0000 C   0  0
    0.4303  -15.9079    0.0000 C   0  0
    1.1434  -15.4945    0.0000 C   0  0
    1.1420  -14.6686    0.0000 C   0  0
    0.4216  -14.2578    0.0000 C   0  0
   -0.2885  -14.6736    0.0000 C   0  0
    1.8585  -15.9057    0.0000 Cl  0  0
    1.8550  -14.2536    0.0000 O   0  0
   -2.7472  -16.1019    0.0000 C   0  0
    2.5709  -14.6636    0.0000 C   0  0
    2.5710  -15.4886    0.0000 C   0  0
    3.2860  -15.8985    0.0000 C   0  0
    4.0000  -15.4834    0.0000 C   0  0
    3.9945  -14.6542    0.0000 C   0  0
    3.2788  -14.2480    0.0000 C   0  0
    4.7060  -14.2366    0.0000 C   0  0
    5.4234  -14.6441    0.0000 F   0  0
    4.7002  -13.4116    0.0000 F   0  0
    5.4167  -13.8167    0.0000 F   0  0
   -3.5539  -15.9291    0.0000 C   0  0
   -4.6144  -14.9713    0.0000 C   0  0
   -4.8681  -14.1863    0.0000 C   0  0
   -5.6748  -14.0136    0.0000 O   0  0
 17 18  1  0
  4  5  2  0
 18 19  2  0
 19 14  1  0
  3  2  2  0
 16 20  1  0
  5  6  1  0
 17 21  1  0
  9 10  1  0
 10 22  1  0
 10 11  1  0
 21 23  1  0
 11 12  2  0
 23 24  2  0
 12  8  1  0
 24 25  1  0
 25 26  2  0
  7 13  1  0
 26 27  1  0
  6  7  2  0
 27 28  2  0
 28 23  1  0
 13 14  1  0
 27 29  1  0
  7  9  1  0
 29 30  1  0
 14 15  2  0
 29 31  1  0
  8  9  2  0
 29 32  1  0
 15 16  1  0
 22 33  1  0
 33  2  1  0
  8  4  1  0
  2 34  1  0
 16 17  2  0
 34 35  1  0
  2  1  2  0
 35 36  1  0
M  END
> <chembl_id>
CHEMBL1923016

$$$$

  SciTegic04091414152D

 39 43  0  0  0  0            999 V2000
   11.0859  -17.7498    0.0000 N   0  0
   11.0848  -18.5771    0.0000 C   0  0
   11.7996  -18.9900    0.0000 N   0  0
   11.7977  -17.3370    0.0000 C   0  0
   12.5132  -17.7462    0.0000 C   0  0
   12.5139  -18.5730    0.0000 C   0  0
   13.2293  -18.9839    0.0000 N   0  0
   13.9442  -18.5692    0.0000 C   0  0
   13.9395  -17.7392    0.0000 N   0  0
   13.2236  -17.3320    0.0000 C   0  0
   10.3700  -18.9890    0.0000 N   0  0
   14.6603  -18.9789    0.0000 O   0  0
   14.6514  -17.3224    0.0000 C   0  0
   10.3693  -19.8140    0.0000 C   0  0
    9.6545  -20.2244    0.0000 C   0  0
    9.6535  -21.0486    0.0000 C   0  0
   10.3681  -21.4625    0.0000 C   0  0
   11.0853  -21.0462    0.0000 C   0  0
   11.0828  -20.2233    0.0000 C   0  0
   10.3685  -22.2875    0.0000 N   0  0
    9.6540  -22.7010    0.0000 C   0  0
    9.6524  -23.5225    0.0000 C   0  0
   10.3653  -23.9384    0.0000 N   0  0
   11.0813  -23.5268    0.0000 C   0  0
   11.0845  -22.6992    0.0000 C   0  0
   10.3626  -24.7634    0.0000 C   0  0
    8.9407  -19.8106    0.0000 O   0  0
    8.2256  -20.2218    0.0000 C   0  0
   13.2310  -19.8089    0.0000 C   0  0  1  0  0  0
   12.5668  -20.2947    0.0000 C   0  0
   12.8233  -21.0787    0.0000 C   0  0
   13.6484  -21.0770    0.0000 N   0  0
   13.9015  -20.2918    0.0000 C   0  0
   14.0557  -21.7946    0.0000 C   0  0
   13.6382  -22.5062    0.0000 C   0  0
   14.8806  -21.8003    0.0000 O   0  0
   14.0458  -23.2235    0.0000 C   0  0
   15.3684  -17.7305    0.0000 C   0  0
   14.6464  -16.4974    0.0000 C   0  0
  1  2  2  0
  2  3  1  0
  3  6  2  0
  5  4  2  0
  4  1  1  0
  5  6  1  0
  6  7  1  0
  7  8  1  0
  8  9  1  0
  9 10  1  0
 10  5  1  0
  2 11  1  0
  8 12  2  0
  9 13  1  0
 11 14  1  0
 14 15  2  0
 15 16  1  0
 16 17  2  0
 17 18  1  0
 18 19  2  0
 19 14  1  0
 17 20  1  0
 20 21  1  0
 20 25  1  0
 21 22  1  0
 22 23  1  0
 23 24  1  0
 24 25  1  0
 23 26  1  0
 15 27  1  0
 27 28  1  0
 29  7  1  6
 29 30  1  0
 30 31  1  0
 31 32  1  0
 32 33  1  0
 33 29  1  0
 32 34  1  0
 34 35  1  0
 34 36  2  0
 35 37  2  0
 13 38  1  0
 13 39  1  0
M  END
> <chembl_id>
CHEMBL3087201

$$$$

  SciTegic04191617032D

 35 39  0  0  0  0            999 V2000
    4.6488    1.8163    0.0000 C   0  0
    6.1174    2.1217    0.0000 C   0  0
    6.5873    3.5462    0.0000 N   0  0
    5.5886    4.6654    0.0000 C   0  0
    4.1200    4.3600    0.0000 N   0  0
    3.6500    2.9355    0.0000 C   0  0
    6.0558    6.0916    0.0000 O   0  0
    5.0549    7.2100    0.0000 C   0  0
    2.1812    2.6271    0.0000 N   0  0
    1.7138    1.2033    0.0000 C   0  0
    1.7138   -1.2033    0.0000 N   0  0
    2.5889    0.0182    0.0000 N   0  0
    0.2917   -0.7475    0.0000 C   0  0
    0.2917    0.7475    0.0000 C   0  0
   -1.0028    1.5132    0.0000 C   0  0
   -2.3155    0.7475    0.0000 C   0  0
   -2.3155   -0.7475    0.0000 C   0  0
   -1.0028   -1.5132    0.0000 C   0  0
    5.5198    8.6362    0.0000 C   0  0
    4.5172    9.7519    0.0000 C   0  0
    3.0497    9.4415    0.0000 C   0  0
    2.5848    8.0154    0.0000 C   0  0
    3.5873    6.8996    0.0000 C   0  0
    1.1170    7.7018    0.0000 N   0  0
    0.6539    6.2742    0.0000 C   0  0
   -0.8138    5.9606    0.0000 C   0  0
   -1.1842    4.8192    0.0000 C   0  0
    1.4575    5.3830    0.0000 O   0  0
    7.1166    1.0019    0.0000 N   0  0
    6.6491   -0.4234    0.0000 C   0  0
    7.6496   -1.5410    0.0000 C   0  0
    9.1177   -1.2333    0.0000 N   0  0
    9.5853    0.1919    0.0000 C   0  0
    8.5848    1.3095    0.0000 C   0  0
    9.9181   -2.1274    0.0000 C   0  0
  1  2  2  0
  2  3  1  0
  3  4  2  0
  4  5  1  0
  5  6  2  0
  6  1  1  0
  4  7  1  0
  7  8  1  0
  6  9  1  0
  9 10  1  0
 10 14  1  0
 13 11  1  0
 11 12  1  0
 12 10  2  0
 13 14  2  0
 14 15  1  0
 15 16  2  0
 16 17  1  0
 17 18  2  0
 18 13  1  0
  8 19  2  0
 19 20  1  0
 20 21  2  0
 21 22  1  0
 22 23  2  0
 23  8  1  0
 22 24  1  0
 24 25  1  0
 25 26  1  0
 26 27  2  0
 25 28  2  0
  2 29  1  0
 29 30  1  0
 29 34  1  0
 30 31  1  0
 31 32  1  0
 32 33  1  0
 33 34  1  0
 32 35  1  0
M  END
> <chembl_id>
CHEMBL3604937

$$$$

  SciTegic02271217242D

 35 38  0  0  0  0            999 V2000
   -1.1586  -29.3777    0.0000 N   0  0
   -0.4422  -28.9644    0.0000 C   0  0
   -0.4450  -28.1338    0.0000 N   0  0
   -1.1604  -27.7247    0.0000 C   0  0
   -1.8734  -28.9648    0.0000 C   0  0
   -1.8722  -28.1359    0.0000 C   0  0
   -2.6602  -27.8786    0.0000 N   0  0
   -3.1484  -28.5485    0.0000 C   0  0
   -2.6622  -29.2197    0.0000 C   0  0
   -1.1622  -26.8997    0.0000 N   0  0
   -0.4487  -26.4856    0.0000 C   0  0
    0.2636  -26.8995    0.0000 C   0  0
    0.9767  -26.4861    0.0000 C   0  0
    0.9753  -25.6603    0.0000 C   0  0
    0.2549  -25.2495    0.0000 C   0  0
   -0.4552  -25.6652    0.0000 C   0  0
    1.6919  -26.8974    0.0000 Cl  0  0
    1.6883  -25.2452    0.0000 O   0  0
   -2.9139  -27.0935    0.0000 C   0  0
    2.4043  -25.6552    0.0000 C   0  0
    2.4043  -26.4803    0.0000 C   0  0
    3.1194  -26.8902    0.0000 C   0  0
    3.8334  -26.4751    0.0000 C   0  0
    3.8278  -25.6458    0.0000 C   0  0
    3.1121  -25.2397    0.0000 C   0  0
    4.5393  -25.2283    0.0000 O   0  0
    5.2567  -25.6357    0.0000 C   0  0
    5.9682  -25.2182    0.0000 F   0  0
    5.2625  -26.4607    0.0000 F   0  0
    5.9667  -26.0458    0.0000 F   0  0
   -3.7206  -26.9208    0.0000 C   0  0
   -3.9743  -26.1358    0.0000 O   0  0
   -4.7810  -25.9630    0.0000 C   0  0
   -5.0348  -25.1780    0.0000 C   0  0
   -5.8335  -25.0052    0.0000 O   0  0
  6  7  1  0
 13 17  1  0
  7  8  1  0
 14 18  1  0
  8  9  2  0
  7 19  1  0
  9  5  1  0
 18 20  1  0
  4  6  1  0
 20 21  2  0
  4 10  1  0
 21 22  1  0
  5  6  2  0
 22 23  2  0
 10 11  1  0
 23 24  1  0
  1  2  2  0
 24 25  2  0
 25 20  1  0
 11 12  2  0
 24 26  1  0
  5  1  1  0
 26 27  1  0
 12 13  1  0
 27 28  1  0
  2  3  1  0
 27 29  1  0
 13 14  2  0
 27 30  1  0
 19 31  1  0
 14 15  1  0
 31 32  1  0
  3  4  2  0
 32 33  1  0
 15 16  2  0
 33 34  1  0
 16 11  1  0
 34 35  1  0
M  END
> <chembl_id>
CHEMBL1923011

$$$$

  SciTegic04071410272D

 44 50  0  0  0  0            999 V2000
   28.2357   -1.3851    0.0000 C   0  0
   27.6842   -1.9974    0.0000 C   0  0
   27.9360   -2.7792    0.0000 C   0  0
   29.2967   -2.3427    0.0000 C   0  0
   29.0445   -1.5544    0.0000 C   0  0
   28.4414   -4.3496    0.0000 C   0  0
   28.6902   -5.1324    0.0000 C   0  0
   29.4960   -5.3113    0.0000 N   0  0
   30.0525   -4.7010    0.0000 C   0  0
   29.8033   -3.9118    0.0000 C   0  0
   29.7448   -6.0979    0.0000 C   0  0
   27.9797   -0.6008    0.0000 N   0  0
   25.7694    0.4750    0.0000 N   0  0
   25.7682   -0.3482    0.0000 C   0  0
   26.4872   -0.7610    0.0000 N   0  0
   26.4854    0.8878    0.0000 C   0  0
   27.1966    0.4787    0.0000 C   0  0
   27.1974   -0.3482    0.0000 C   0  0
   28.4655    0.0623    0.0000 N   0  0
   27.9817    0.7324    0.0000 C   0  0
   28.3924    1.4473    0.0000 C   0  0
   29.2183    1.4454    0.0000 C   0  0
   29.6291    2.1599    0.0000 C   0  0
   29.2150    2.8745    0.0000 C   0  0
   28.3857    2.8700    0.0000 C   0  0
   27.9786    2.1549    0.0000 C   0  0
   29.6249    3.5904    0.0000 N   0  0
   30.4499    3.5933    0.0000 C   0  0
   30.9367    2.9329    0.0000 O   0  0
   30.9320    4.2739    0.0000 N   0  0
   31.7175    4.0176    0.0000 C   0  0
   31.7183    3.1935    0.0000 C   0  0
   32.4295    2.7848    0.0000 C   0  0
   33.1406    3.1972    0.0000 C   0  0
   33.1359    4.0275    0.0000 C   0  0
   32.4240    4.4308    0.0000 C   0  0
   32.4312    1.9598    0.0000 Cl  0  0
   26.4850    1.7128    0.0000 N   0  0
   30.5505   -6.2756    0.0000 C   0  0
   30.7993   -7.0622    0.0000 C   0  0
   31.6050   -7.2399    0.0000 O   0  0
   31.8539   -8.0265    0.0000 C   0  0
   28.7424   -2.9551    0.0000 N   0  0
   28.9943   -3.7407    0.0000 C   0  0
 18 12  1  0
 12 19  1  0
 19 20  2  0
 20 17  1  0
  6  7  1  0
 20 21  1  0
  7  8  1  0
 21 22  2  0
  8  9  1  0
 22 23  1  0
  9 10  1  0
 23 24  2  0
  4  5  1  0
 24 25  1  0
  8 11  1  0
 25 26  2  0
 26 21  1  0
  1  2  1  0
 24 27  1  0
  1 12  1  0
 27 28  1  0
 28 29  1  0
 43 44  1  0
 44  6  1  0
 29 32  1  0
 31 30  1  0
 30 28  2  0
 13 14  2  0
 31 32  2  0
 14 15  1  0
 32 33  1  0
 15 18  2  0
 33 34  2  0
  1  5  1  0
 34 35  1  0
 17 16  2  0
 35 36  2  0
 36 31  1  0
 16 13  1  0
 33 37  1  0
 17 18  1  0
 16 38  1  0
  2  3  1  0
 11 39  1  0
  3 43  1  0
 39 40  1  0
 43  4  1  0
 40 41  1  0
 44 10  1  0
 41 42  1  0
M  END
> <chembl_id>
CHEMBL1256431

$$$$

  SciTegic12161615052D

 33 36  0  0  0  0            999 V2000
    1.2990   -0.7500    0.0000 C   0  0
    1.2990    0.7500    0.0000 C   0  0
    0.0000    1.5000    0.0000 C   0  0
   -1.2990    0.7500    0.0000 C   0  0
   -1.2990   -0.7500    0.0000 C   0  0
    0.0000   -1.5000    0.0000 N   0  0
    2.5972    1.5031    0.0000 C   0  0
    3.6375    0.9049    0.0000 O   0  0
    2.5951    3.0039    0.0000 N   0  0
    2.3383   -1.3500    0.0000 O   0  0
    3.8933    3.7570    0.0000 C   0  0
    3.8933    5.2571    0.0000 C   0  0
    5.1924    6.0071    0.0000 C   0  0
    6.4914    5.2571    0.0000 C   0  0
    6.4915    3.7571    0.0000 C   0  0
    5.1925    3.0071    0.0000 C   0  0
    7.7911    6.0075    0.0000 N   0  0
    7.7935    7.5076    0.0000 C   0  0
    9.0937    8.2556    0.0000 C   0  0
   10.3916    7.5036    0.0000 N   0  0
   10.3893    6.0036    0.0000 C   0  0
    9.0891    5.2556    0.0000 C   0  0
   11.4318    8.1019    0.0000 C   0  0
   -0.0031    3.0008    0.0000 N   0  0
   -1.3039    3.7494    0.0000 C   0  0
   -2.6005    2.9949    0.0000 C   0  0
   -3.9021    3.7404    0.0000 C   0  0
   -3.9073    5.2404    0.0000 C   0  0
   -2.6108    5.9949    0.0000 C   0  0
   -1.3092    5.2494    0.0000 C   0  0
    1.0351    3.6026    0.0000 C   0  0
   -0.0136    6.0070    0.0000 O   0  0
   -0.0195    7.2070    0.0000 C   0  0
  1  2  1  0
  2  3  2  0
  3  4  1  0
  4  5  2  0
  5  6  1  0
  1  6  1  0
  7  8  2  0
  7  9  1  0
  2  7  1  0
  1 10  2  0
 11 12  1  0
 12 13  2  0
 13 14  1  0
 14 15  2  0
 15 16  1  0
 11 16  2  0
 17 18  1  0
 18 19  1  0
 19 20  1  0
 20 21  1  0
 21 22  1  0
 17 22  1  0
 20 23  1  0
 14 17  1  0
  9 11  1  0
  3 24  1  0
 24 25  1  0
 25 26  2  0
 26 27  1  0
 27 28  2  0
 28 29  1  0
 29 30  2  0
 30 25  1  0
 24 31  1  0
 30 32  1  0
 32 33  1  0
M  END
> <chembl_id>
CHEMBL3780887

$$$$

  SciTegic12171313022D

 34 38  0  0  0  0            999 V2000
   21.6541  -10.1529    0.0000 C   0  0
   21.6530  -10.9725    0.0000 C   0  0
   22.3611  -11.3814    0.0000 N   0  0
   23.0707  -10.9720    0.0000 C   0  0
   23.0679  -10.1493    0.0000 N   0  0
   22.3593   -9.7441    0.0000 C   0  0
   20.9463   -9.7445    0.0000 Cl  0  0
   22.3573   -8.9270    0.0000 C   0  0
   23.0170   -8.4446    0.0000 C   0  0
   22.7622   -7.6682    0.0000 N   0  0
   21.6948   -8.4486    0.0000 C   0  0
   21.9478   -7.6715    0.0000 C   0  0
   21.4018   -7.0660    0.0000 C   0  0
   20.6027   -7.2363    0.0000 C   0  0
   20.3526   -8.0176    0.0000 C   0  0
   20.9003   -8.6198    0.0000 C   0  0
   23.7791  -11.3795    0.0000 N   0  0
   24.4861  -10.9698    0.0000 C   0  0
   25.1911  -11.3777    0.0000 C   0  0
   25.8977  -10.9687    0.0000 C   0  0
   25.8969  -10.1506    0.0000 C   0  0
   25.1836   -9.7433    0.0000 C   0  0
   24.4799  -10.1547    0.0000 C   0  0
   25.1912  -12.1949    0.0000 O   0  0
   24.4836  -12.6036    0.0000 C   0  0
   26.6034   -9.7400    0.0000 N   0  0
   27.3105  -10.1521    0.0000 C   0  0
   28.0150   -9.7449    0.0000 C   0  0
   28.0168   -8.9274    0.0000 N   0  0
   27.3081   -8.5187    0.0000 C   0  0
   26.5975   -8.9275    0.0000 C   0  0
   28.7249   -8.5194    0.0000 C   0  0
   29.4322   -8.9286    0.0000 C   0  0
   28.7256   -7.7022    0.0000 O   0  0
  1  2  2  0
  2  3  1  0
  3  4  2  0
  4  5  1  0
  5  6  2  0
  6  1  1  0
  1  7  1  0
  8  9  2  0
  9 10  1  0
 10 12  1  0
 11  8  1  0
  6  8  1  0
 11 12  2  0
 12 13  1  0
 13 14  2  0
 14 15  1  0
 15 16  2  0
 16 11  1  0
  4 17  1  0
 17 18  1  0
 18 19  2  0
 19 20  1  0
 20 21  2  0
 21 22  1  0
 22 23  2  0
 23 18  1  0
 19 24  1  0
 24 25  1  0
 21 26  1  0
 26 27  1  0
 26 31  1  0
 27 28  1  0
 28 29  1  0
 29 30  1  0
 30 31  1  0
 29 32  1  0
 32 33  1  0
 32 34  2  0
M  END
> <chembl_id>
CHEMBL2426280

$$$$

  SciTegic12091611202D

 28 30  0  0  0  0            999 V2000
  -12.7129    0.6370    0.0000 C   0  0
  -11.4219    1.4024    0.0000 C   0  0
  -10.1131    0.6680    0.0000 C   0  0
   -8.8221    1.4334    0.0000 C   0  0
  -13.7594    1.2242    0.0000 O   0  0
  -12.6986   -0.5629    0.0000 N   0  0
   -7.5133    0.6990    0.0000 C   0  0
   -6.2219    1.4621    0.0000 N   0  0
   -4.9153    0.7255    0.0000 C   0  0
   -4.9001   -0.7745    0.0000 C   0  0
   -6.1914   -1.5377    0.0000 C   0  0
   -7.4980   -0.8010    0.0000 N   0  0
   -3.6217    1.4865    0.0000 N   0  0
   -1.0028   -1.5132    0.0000 C   0  0
    0.2917   -0.7475    0.0000 C   0  0
    0.2917    0.7475    0.0000 C   0  0
   -1.0028    1.5132    0.0000 C   0  0
   -2.3155    0.7475    0.0000 C   0  0
   -2.3155   -0.7475    0.0000 N   0  0
    2.5889    0.0182    0.0000 C   0  0
    1.7138   -1.2033    0.0000 N   0  0
    1.7138    1.2033    0.0000 N   0  0
    3.7889    0.0269    0.0000 C   0  0
    2.1812    2.6271    0.0000 C   0  0
    3.3556    2.8737    0.0000 C   0  0
    1.3808    3.5211    0.0000 C   0  0
  -10.3900    2.0149    0.0000 C   0  0
  -11.4362    2.6023    0.0000 C   0  0
  1  2  1  0
  2  3  1  0
  3  4  2  0
  1  5  2  0
  1  6  1  0
  7  8  1  0
  8  9  2  0
  9 10  1  0
 10 11  2  0
 11 12  1  0
  7 12  2  0
 14 15  1  0
 15 16  2  0
 16 17  1  0
 17 18  2  0
 18 19  1  0
 14 19  2  0
 20 21  2  0
 20 22  1  0
 15 21  1  0
 16 22  1  0
 20 23  1  0
 24 25  1  0
 24 26  1  0
 22 24  1  0
 13 18  1  0
  9 13  1  0
  4  7  1  0
  2 27  1  0
  2 28  1  0
M  END
> <chembl_id>
CHEMBL3735559

$$$$

  SciTegic04091414352D

 37 40  0  0  0  0            999 V2000
    8.5722   -6.2599    0.0000 N   0  0
    9.2870   -6.6569    0.0000 C   0  0
    9.3005   -7.4745    0.0000 O   0  0
    9.9883   -6.2365    0.0000 N   0  0
   10.7031   -6.6335    0.0000 C   0  0
   11.4043   -6.2130    0.0000 C   0  0
   12.1191   -6.6101    0.0000 C   0  0
   12.8204   -6.1896    0.0000 N   0  0
   13.5352   -6.5867    0.0000 C   0  0
   14.2364   -6.1662    0.0000 C   0  0
   12.8069   -5.3721    0.0000 C   0  0
   12.0921   -4.9750    0.0000 C   0  0
    5.7672   -7.9418    0.0000 N   0  0
    5.0524   -7.5447    0.0000 C   0  0
    5.0389   -6.7272    0.0000 N   0  0
    5.7401   -6.3067    0.0000 C   0  0
    6.4549   -6.7038    0.0000 C   0  0
    7.1562   -6.2833    0.0000 C   0  0
    7.8710   -6.6803    0.0000 C   0  0
    7.8845   -7.4979    0.0000 C   0  0
    7.1832   -7.9184    0.0000 C   0  0
    6.4684   -7.5213    0.0000 C   0  0
    8.5993   -7.8950    0.0000 O   0  0
    8.2248   -9.9774    0.0000 O   0  0
    7.9593   -9.2040    0.0000 C   0  0
    8.6128   -8.7125    0.0000 C   0  0  2  0  0  0
    9.2821   -9.1821    0.0000 C   0  0
    9.0424   -9.9639    0.0000 C   0  0
    5.7266   -5.4891    0.0000 N   0  0
    5.0118   -5.0921    0.0000 C   0  0
    4.3106   -5.5126    0.0000 C   0  0
    3.5958   -5.1155    0.0000 C   0  0
    3.5823   -4.2979    0.0000 C   0  0
    4.2835   -3.8774    0.0000 C   0  0
    4.9983   -4.2745    0.0000 C   0  0
    2.8675   -3.9009    0.0000 F   0  0
    2.8945   -5.5360    0.0000 Cl  0  0
  1  2  1  0
  2  3  2  0
  2  4  1  0
  5  6  1  0
  6  7  1  0
  9 10  1  0
  8  9  1  0
 11 12  1  0
  8 11  1  0
  7  8  1  0
  4  5  1  0
 13 14  1  0
 14 15  2  0
 15 16  1  0
 16 17  2  0
 17 18  1  0
 18 19  2  0
 19 20  1  0
 20 21  2  0
 21 22  1  0
 13 22  2  0
 17 22  1  0
 24 25  1  0
 25 26  1  0
 26 27  1  0
 27 28  1  0
 24 28  1  0
 26 23  1  1
 20 23  1  0
 30 31  1  0
 31 32  2  0
 32 33  1  0
 33 34  2  0
 34 35  1  0
 30 35  2  0
 33 36  1  0
 32 37  1  0
 29 30  1  0
 16 29  1  0
  1 19  1  0
M  END
> <chembl_id>
CHEMBL3092314

$$$$

  SciTegic04191617032D

 30 33  0  0  0  0            999 V2000
    1.2990   -0.7500    0.0000 C   0  0
    1.2990    0.7500    0.0000 C   0  0
    0.0000    1.5000    0.0000 N   0  0
   -1.2990    0.7500    0.0000 C   0  0
   -1.2990   -0.7500    0.0000 N   0  0
    0.0000   -1.5000    0.0000 C   0  0
    0.0031   -3.0008    0.0000 N   0  0
    1.3039   -3.7494    0.0000 C   0  0
    1.4469   -5.2297    0.0000 C   0  0
    2.9152   -5.5365    0.0000 C   0  0
    3.6607   -4.2349    0.0000 N   0  0
    2.6532   -3.1236    0.0000 N   0  0
    3.4071   -6.6311    0.0000 C   0  0
   -2.6003    1.4977    0.0000 O   0  0
   -3.8990    0.7455    0.0000 C   0  0
   -5.2007    1.4909    0.0000 C   0  0
   -6.4972    0.7364    0.0000 C   0  0
   -6.4920   -0.7636    0.0000 C   0  0
   -5.1903   -1.5091    0.0000 C   0  0
   -3.8939   -0.7546    0.0000 C   0  0
    2.5987    1.5004    0.0000 N   0  0
    3.8991    0.7525    0.0000 C   0  0
    5.1969    1.5046    0.0000 C   0  0
    5.1945    3.0046    0.0000 N   0  0
    3.8943    3.7525    0.0000 C   0  0
    2.5964    3.0004    0.0000 C   0  0
    6.2328    3.6062    0.0000 C   0  0
   -5.1821   -3.0099    0.0000 N   0  3
   -4.1399   -3.6048    0.0000 O   0  0
   -6.2181   -3.6153    0.0000 O   0  5
  1  2  2  0
  2  3  1  0
  3  4  2  0
  4  5  1  0
  5  6  2  0
  6  1  1  0
  6  7  1  0
  7  8  1  0
  8  9  1  0
  9 10  2  0
 10 11  1  0
 11 12  1  0
 12  8  2  0
 10 13  1  0
  4 14  1  0
 14 15  1  0
 15 16  2  0
 16 17  1  0
 17 18  2  0
 18 19  1  0
 19 20  2  0
 20 15  1  0
  2 21  1  0
 21 22  1  0
 21 26  1  0
 22 23  1  0
 23 24  1  0
 24 25  1  0
 25 26  1  0
 24 27  1  0
 28 29  2  0
 28 30  1  0
 19 28  1  0
M  CHG  2  28   1  30  -1
M  END
> <chembl_id>
CHEMBL3604927

$$$$

  SciTegic04191617032D

 32 35  0  0  0  0            999 V2000
    1.2990   -0.7500    0.0000 C   0  0
    1.2990    0.7500    0.0000 C   0  0
    0.0000    1.5000    0.0000 N   0  0
   -1.2990    0.7500    0.0000 C   0  0
   -1.2990   -0.7500    0.0000 N   0  0
    0.0000   -1.5000    0.0000 C   0  0
    0.0031   -3.0008    0.0000 N   0  0
    1.3039   -3.7494    0.0000 C   0  0
    1.4469   -5.2297    0.0000 C   0  0
    2.9152   -5.5365    0.0000 C   0  0
    3.6607   -4.2349    0.0000 N   0  0
    2.6532   -3.1236    0.0000 N   0  0
    3.4071   -6.6311    0.0000 C   0  0
   -2.6003    1.4977    0.0000 O   0  0
   -3.8990    0.7455    0.0000 C   0  0
   -5.2007    1.4909    0.0000 C   0  0
   -6.4972    0.7364    0.0000 C   0  0
   -6.4920   -0.7636    0.0000 C   0  0
   -5.1903   -1.5091    0.0000 C   0  0
   -3.8939   -0.7546    0.0000 C   0  0
    2.5987    1.5004    0.0000 N   0  0
    3.8991    0.7525    0.0000 C   0  0
    5.1969    1.5046    0.0000 C   0  0
    5.1945    3.0046    0.0000 N   0  0
    3.8943    3.7525    0.0000 C   0  0
    2.5964    3.0004    0.0000 C   0  0
    6.2328    3.6062    0.0000 C   0  0
   -7.7876   -1.5212    0.0000 N   0  0
   -7.7802   -3.0220    0.0000 C   0  0
   -9.0758   -3.7796    0.0000 C   0  0
   -9.0700   -4.9795    0.0000 C   0  0
   -6.7379   -3.6166    0.0000 O   0  0
  1  2  2  0
  2  3  1  0
  3  4  2  0
  4  5  1  0
  5  6  2  0
  6  1  1  0
  6  7  1  0
  7  8  1  0
  8  9  1  0
  9 10  2  0
 10 11  1  0
 11 12  1  0
 12  8  2  0
 10 13  1  0
  4 14  1  0
 14 15  1  0
 15 16  2  0
 16 17  1  0
 17 18  2  0
 18 19  1  0
 19 20  2  0
 20 15  1  0
  2 21  1  0
 21 22  1  0
 21 26  1  0
 22 23  1  0
 23 24  1  0
 24 25  1  0
 25 26  1  0
 24 27  1  0
 18 28  1  0
 28 29  1  0
 29 30  1  0
 30 31  1  0
 29 32  2  0
M  END
> <chembl_id>
CHEMBL3604925

$$$$

  SciTegic02271217242D

 34 37  0  0  0  0            999 V2000
   -0.8628   -2.2694    0.0000 N   0  0
   -0.1463   -1.8560    0.0000 C   0  0
   -0.1492   -1.0255    0.0000 N   0  0
   -0.8646   -0.6164    0.0000 C   0  0
   -1.5776   -1.8565    0.0000 C   0  0
   -1.5763   -1.0276    0.0000 C   0  0
   -2.3643   -0.7702    0.0000 N   0  0
   -2.8526   -1.4401    0.0000 C   0  0
   -2.3663   -2.1114    0.0000 C   0  0
   -0.8664    0.2086    0.0000 N   0  0
   -0.1528    0.6227    0.0000 C   0  0
    0.5594    0.2088    0.0000 C   0  0
    1.2725    0.6222    0.0000 C   0  0
    1.2712    1.4481    0.0000 C   0  0
    0.5508    1.8588    0.0000 C   0  0
   -0.1594    1.4431    0.0000 C   0  0
    1.9877    0.2109    0.0000 Cl  0  0
    1.9842    1.8631    0.0000 O   0  0
   -2.6181    0.0148    0.0000 C   0  0
    2.7001    1.4531    0.0000 C   0  0
    2.7001    0.6281    0.0000 C   0  0
    3.4152    0.2182    0.0000 C   0  0
    4.1292    0.6333    0.0000 C   0  0
    4.1236    1.4625    0.0000 C   0  0
    3.4080    1.8687    0.0000 C   0  0
    4.8352    1.8800    0.0000 C   0  0
    5.5525    1.4726    0.0000 F   0  0
    4.8294    2.7050    0.0000 F   0  0
    5.5458    2.3000    0.0000 F   0  0
   -3.4248    0.1876    0.0000 C   0  0
   -3.6785    0.9726    0.0000 C   0  0
   -4.4852    1.1453    0.0000 C   0  0
   -4.7389    1.9303    0.0000 C   0  0
   -5.5377    2.1031    0.0000 O   0  0
 16 11  1  0
  6  7  1  0
 13 17  1  0
  7  8  1  0
 14 18  1  0
  8  9  2  0
  7 19  1  0
  9  5  1  0
 18 20  1  0
  4  6  1  0
 20 21  2  0
  4 10  1  0
 21 22  1  0
  5  6  2  0
 22 23  2  0
 10 11  1  0
 23 24  1  0
  1  2  2  0
 24 25  2  0
 25 20  1  0
 11 12  2  0
 24 26  1  0
  5  1  1  0
 26 27  1  0
 12 13  1  0
 26 28  1  0
  2  3  1  0
 26 29  1  0
 13 14  2  0
 19 30  1  0
 30 31  1  0
 14 15  1  0
 31 32  1  0
  3  4  2  0
 32 33  1  0
 15 16  2  0
 33 34  1  0
M  END
> <chembl_id>
CHEMBL1923012

$$$$

  SciTegic04201616412D

 28 31  0  0  0  0            999 V2000
    0.0000    0.7486    0.0000 C   0  0
   -1.2964    1.4973    0.0000 C   0  0
    0.0000   -0.7486    0.0000 C   0  0
    1.2964    1.4973    0.0000 C   0  0
   -2.6111    0.7486    0.0000 N   0  0
    1.2964   -1.4973    0.0000 C   0  0
   -1.2907    2.9981    0.0000 N   0  0
    2.5929    0.7486    0.0000 C   0  0
    2.5929   -0.7486    0.0000 C   0  0
   -5.1852    3.7608    0.0000 C   0  0
   -1.2964   -1.4973    0.0000 N   0  0
   -3.8880    3.0076    0.0000 C   0  0
   -2.6111   -0.7486    0.0000 C   0  0
   -2.5870    3.7544    0.0000 C   0  0
   -5.1815    5.2608    0.0000 C   0  0
   -3.8807    6.0076    0.0000 C   0  0
   -2.5835    5.2544    0.0000 C   0  0
    3.8911   -1.5017    0.0000 O   0  0
    3.8894   -2.7017    0.0000 C   0  0
   -3.8777    7.2076    0.0000 Cl  0  0
   -1.5428    5.8519    0.0000 F   0  0
    3.8911    1.5017    0.0000 C   0  0
    3.8890    3.0026    0.0000 N   0  0
    5.1854    3.7571    0.0000 C   0  0
    5.1802    5.2571    0.0000 C   0  0
    3.8786    6.0026    0.0000 O   0  0
    2.5821    5.2482    0.0000 C   0  0
    2.5873    3.7482    0.0000 C   0  0
  2  1  1  0
  3  1  1  0
  4  1  2  0
  5  2  2  0
  6  3  2  0
  7  2  1  0
  8  4  1  0
  9  8  2  0
 10 12  1  0
 11  3  1  0
 12 14  2  0
 13 11  2  0
 14  7  1  0
 15 16  1  0
 16 17  2  0
 17 14  1  0
 18  9  1  0
 19 18  1  0
  6  9  1  0
 13  5  1  0
 10 15  2  0
 16 20  1  0
 17 21  1  0
  8 22  1  0
 22 23  1  0
 23 24  1  0
 23 28  1  0
 24 25  1  0
 25 26  1  0
 26 27  1  0
 27 28  1  0
M  END
> <chembl_id>
CHEMBL3623278

$$$$

          11280715552D 1   1.00000     0.00000     0

 30 33  0     0  0            999 V2000
    1.4750   -4.2042    0.0000 C   0  0  3  0  0  0           0  0  0
    7.9125   -3.7792    0.0000 C   0  0  0  0  0  0           0  0  0
    8.6292   -4.1875    0.0000 C   0  0  3  0  0  0           0  0  0
    5.0500   -1.3167    0.0000 C   0  0  0  0  0  0           0  0  0
    3.6167   -1.3167    0.0000 C   0  0  0  0  0  0           0  0  0
    5.0500   -0.4917    0.0000 N   0  0  0  0  0  0           0  0  0
    3.6167   -0.4917    0.0000 N   0  0  0  0  0  0           0  0  0
    7.2042   -4.1917    0.0000 N   0  0  0  0  0  0           0  0  0
    4.3292   -1.7292    0.0000 C   0  0  0  0  0  0           0  0  0
    9.0500   -4.8917    0.0000 C   0  0  0  0  0  0           0  0  0
    9.4542   -4.1792    0.0000 C   0  0  0  0  0  0           0  0  0
    2.1875   -3.7917    0.0000 C   0  0  0  0  0  0           0  0  0
    4.3292   -0.0792    0.0000 C   0  0  0  0  0  0           0  0  0
    5.7667   -1.7292    0.0000 N   0  0  0  0  0  0           0  0  0
    2.9042   -1.7292    0.0000 N   0  0  0  0  0  0           0  0  0
    6.4875   -3.7875    0.0000 C   0  0  0  0  0  0           0  0  0
    2.1917   -2.9667    0.0000 C   0  0  0  0  0  0           0  0  0
    7.9042   -2.9542    0.0000 O   0  0  0  0  0  0           0  0  0
    6.4792   -2.9625    0.0000 C   0  0  0  0  0  0           0  0  0
    5.7667   -2.5542    0.0000 C   0  0  0  0  0  0           0  0  0
    2.9042   -2.5542    0.0000 C   0  0  0  0  0  0           0  0  0
    1.4750   -5.0292    0.0000 F   0  0  0  0  0  0           0  0  0
    0.7542   -4.6125    0.0000 F   0  0  0  0  0  0           0  0  0
    0.7542   -3.7917    0.0000 F   0  0  0  0  0  0           0  0  0
    2.9042   -4.2042    0.0000 C   0  0  0  0  0  0           0  0  0
    3.6167   -3.7917    0.0000 C   0  0  0  0  0  0           0  0  0
    5.0542   -3.7917    0.0000 C   0  0  0  0  0  0           0  0  0
    5.7667   -4.2042    0.0000 C   0  0  0  0  0  0           0  0  0
    5.0542   -2.9667    0.0000 C   0  0  0  0  0  0           0  0  0
    3.6167   -2.9667    0.0000 C   0  0  0  0  0  0           0  0  0
  2  8  1  0     0  0
  3  2  1  0     0  0
  4  9  2  0     0  0
  5 15  1  0     0  0
  6  4  1  0     0  0
  7  5  2  0     0  0
  8 16  1  0     0  0
  9  5  1  0     0  0
 10  3  1  0     0  0
 11  3  1  0     0  0
 12  1  1  0     0  0
 13  7  1  0     0  0
 14  4  1  0     0  0
 15 21  1  0     0  0
 16 19  2  0     0  0
 17 12  2  0     0  0
 18  2  2  0     0  0
 19 20  1  0     0  0
 20 14  1  0     0  0
 21 17  1  0     0  0
 22  1  1  0     0  0
 23  1  1  0     0  0
 24  1  1  0     0  0
 25 12  1  0     0  0
 26 25  2  0     0  0
 27 29  1  0     0  0
 28 27  2  0     0  0
 29 20  2  0     0  0
 30 26  1  0     0  0
 30 21  2  0     0  0
 13  6  2  0     0  0
 16 28  1  0     0  0
 11 10  1  0     0  0
M  END
> <chembl_id>
CHEMBL387187

$$$$

  SciTegic12211613092D

 35 39  0  0  0  0            999 V2000
   -5.3425    5.2369    0.0000 N   0  0
   -5.2049    3.7560    0.0000 C   0  0  1  0  0  0
   -6.5563    3.1351    0.0000 C   0  0
   -7.5599    4.2500    0.0000 O   0  0
   -6.8097    5.5489    0.0000 C   0  0
   -3.9067    3.0027    0.0000 C   0  0
   -2.8664    3.6008    0.0000 O   0  0
   -3.9091    1.5019    0.0000 N   0  0
   -2.6111    0.7486    0.0000 C   0  0
   -2.6111   -0.7486    0.0000 C   0  0
   -1.2964   -1.4973    0.0000 C   0  0
   -1.2964    1.4973    0.0000 C   0  0
    0.0000    0.7486    0.0000 C   0  0
    0.0000   -0.7486    0.0000 C   0  0
    1.2964   -1.4973    0.0000 N   0  0
    2.5929   -0.7486    0.0000 C   0  0
    2.5929    0.7486    0.0000 N   0  0
    1.2964    1.4973    0.0000 C   0  0
   -3.9091   -1.5019    0.0000 O   0  0
    1.2995    2.9981    0.0000 N   0  0
    2.6003    3.7467    0.0000 C   0  0
    2.6056    5.2467    0.0000 C   0  0
    3.9072    5.9922    0.0000 C   0  0
    5.2037    5.2377    0.0000 C   0  0
    5.1985    3.7377    0.0000 C   0  0
    3.8969    2.9922    0.0000 C   0  0
   -7.2976    6.6452    0.0000 O   0  0
   -3.9067   -3.0027    0.0000 C   0  0
   -4.9447   -3.6050    0.0000 C   0  0
    6.2356    3.1342    0.0000 Cl  0  0
    6.5045    5.9863    0.0000 O   0  0
    6.5075    7.4872    0.0000 C   0  0
    7.8083    8.2357    0.0000 C   0  0
    8.4836    9.4867    0.0000 C   0  0
    9.2290    8.1850    0.0000 C   0  0
  1  2  1  0
  2  3  1  0
  3  4  1  0
  4  5  1  0
  5  1  1  0
  2  6  1  6
  6  7  2  0
  6  8  1  0
  8  9  1  0
  9 10  2  0
 10 11  1  0
 11 14  2  0
 13 12  2  0
 12  9  1  0
 13 14  1  0
 14 15  1  0
 15 16  2  0
 16 17  1  0
 17 18  2  0
 18 13  1  0
 10 19  1  0
 18 20  1  0
 20 21  1  0
 21 22  2  0
 22 23  1  0
 23 24  2  0
 24 25  1  0
 25 26  2  0
 26 21  1  0
  5 27  2  0
 19 28  1  0
 28 29  1  0
 25 30  1  0
 24 31  1  0
 31 32  1  0
 32 33  1  0
 34 33  1  0
 35 34  1  0
 33 35  1  0
M  END
> <chembl_id>
CHEMBL3818970

$$$$

  SciTegic05221516342D

 36 39  0  0  0  0            999 V2000
   11.5548   -3.8961    0.0000 C   0  0
   11.5537   -4.7156    0.0000 C   0  0
   12.2617   -5.1246    0.0000 N   0  0
   12.9714   -4.7151    0.0000 C   0  0
   12.9686   -3.8925    0.0000 N   0  0
   12.2599   -3.4872    0.0000 C   0  0
   12.2580   -2.6701    0.0000 C   0  0
   12.9177   -2.1878    0.0000 C   0  0
   12.6628   -1.4113    0.0000 N   0  0
   11.5955   -2.1917    0.0000 C   0  0
   11.8423   -1.4106    0.0000 C   0  0
   11.2923   -0.8096    0.0000 C   0  0
   10.4925   -0.9841    0.0000 C   0  0
   10.2457   -1.7652    0.0000 C   0  0
   10.7987   -2.3719    0.0000 C   0  0
   13.6797   -5.1226    0.0000 N   0  0
   14.3868   -4.7129    0.0000 C   0  0
   15.0918   -5.1208    0.0000 C   0  0
   15.7984   -4.7118    0.0000 C   0  0
   15.7976   -3.8937    0.0000 C   0  0
   15.0842   -3.4864    0.0000 C   0  0
   14.3806   -3.8978    0.0000 C   0  0
   15.0919   -5.9380    0.0000 O   0  0
   14.3842   -6.3467    0.0000 C   0  0
   15.0801   -2.6692    0.0000 N   0  0
   14.3703   -2.2643    0.0000 C   0  0
   14.3661   -1.4471    0.0000 C   0  0
   13.6647   -2.6765    0.0000 O   0  0
   15.0717   -1.0349    0.0000 C   0  0
   16.5041   -3.4831    0.0000 N   0  0
   17.2130   -3.8896    0.0000 C   0  0
   16.5017   -2.6659    0.0000 C   0  0
   17.2153   -4.7068    0.0000 C   0  0
   17.9242   -5.1134    0.0000 N   0  0
   17.9266   -5.9306    0.0000 C   0  0
   18.6308   -4.7027    0.0000 C   0  0
  1  2  2  0
  2  3  1  0
  3  4  2  0
  4  5  1  0
  5  6  2  0
  6  1  1  0
  7  8  2  0
  8  9  1  0
  9 11  1  0
 10  7  1  0
  6  7  1  0
 10 11  2  0
 10 15  1  0
 11 12  1  0
 12 13  2  0
 13 14  1  0
 14 15  2  0
  4 16  1  0
 16 17  1  0
 17 18  2  0
 18 19  1  0
 19 20  2  0
 20 21  1  0
 21 22  2  0
 22 17  1  0
 18 23  1  0
 23 24  1  0
 21 25  1  0
 25 26  1  0
 26 27  1  0
 26 28  2  0
 27 29  2  0
 20 30  1  0
 30 31  1  0
 30 32  1  0
 31 33  1  0
 33 34  1  0
 34 35  1  0
 34 36  1  0
M  END
> <chembl_id>
CHEMBL3353411

$$$$

  SciTegic09261414462D

 28 30  0  0  0  0            999 V2000
   20.2603  -11.0884    0.0000 N   0  0
   20.9700  -10.6790    0.0000 C   0  0
   20.9671   -9.8563    0.0000 N   0  0
   20.2585   -9.4511    0.0000 C   0  0
   19.5522  -10.6794    0.0000 C   0  0
   19.5535   -9.8629    0.0000 C   0  0
   18.7773   -9.6094    0.0000 C   0  0
   18.2963  -10.2693    0.0000 C   0  0
   18.7753  -10.9305    0.0000 S   0  0
   20.2547   -8.6339    0.0000 N   0  0
   20.9606   -8.2220    0.0000 C   0  0
   21.6680   -8.6321    0.0000 C   0  0
   22.3733   -8.2210    0.0000 C   0  0
   22.3700   -7.4029    0.0000 C   0  0
   21.6554   -6.9978    0.0000 C   0  0
   20.9530   -7.4113    0.0000 C   0  0
   17.4791  -10.2681    0.0000 N   0  0
   17.0715   -9.5598    0.0000 C   0  0
   16.2543   -9.5586    0.0000 C   0  0
   17.4811   -8.8527    0.0000 O   0  0
   23.0753   -6.9901    0.0000 F   0  0
   23.0827   -8.6267    0.0000 Cl  0  0
   15.8447  -10.2658    0.0000 C   0  0
   15.0275  -10.2646    0.0000 C   0  0
   14.6179  -10.9717    0.0000 C   0  0
   13.8007  -10.9705    0.0000 O   0  0
   15.0255  -11.6800    0.0000 O   0  0
   13.3931  -10.2622    0.0000 C   0  0
  5  1  1  0
  1  2  2  0
  2  3  1  0
  3  4  2  0
  4  6  1  0
  5  6  2  0
  6  7  1  0
  7  8  2  0
  8  9  1  0
  9  5  1  0
  4 10  1  0
 10 11  1  0
 11 12  2  0
 12 13  1  0
 13 14  2  0
 14 15  1  0
 15 16  2  0
 16 11  1  0
  8 17  1  0
 17 18  1  0
 18 19  1  0
 18 20  2  0
 14 21  1  0
 13 22  1  0
 19 23  1  0
 23 24  1  0
 24 25  1  0
 25 26  1  0
 25 27  2  0
 26 28  1  0
M  END
> <chembl_id>
CHEMBL3233760

$$$$

  SciTegic12171313022D

 32 36  0  0  0  0            999 V2000
    2.3140   -4.4367    0.0000 C   0  0
    2.3128   -5.2563    0.0000 C   0  0
    3.0209   -5.6652    0.0000 N   0  0
    3.7305   -5.2558    0.0000 C   0  0
    3.7277   -4.4331    0.0000 N   0  0
    3.0191   -4.0279    0.0000 C   0  0
    1.6062   -4.0283    0.0000 Cl  0  0
    3.0171   -3.2108    0.0000 C   0  0
    3.6768   -2.7284    0.0000 C   0  0
    3.4220   -1.9520    0.0000 N   0  0
    2.3546   -2.7324    0.0000 C   0  0
    2.6076   -1.9553    0.0000 C   0  0
    2.0616   -1.3498    0.0000 C   0  0
    1.2625   -1.5201    0.0000 C   0  0
    1.0124   -2.3014    0.0000 C   0  0
    1.5601   -2.9036    0.0000 C   0  0
    4.4389   -5.6633    0.0000 N   0  0
    5.1459   -5.2536    0.0000 C   0  0
    5.8510   -5.6615    0.0000 C   0  0
    6.5575   -5.2525    0.0000 C   0  0
    5.1397   -4.4385    0.0000 C   0  0
    5.8510   -6.4787    0.0000 O   0  0
    5.1434   -6.8874    0.0000 C   0  0
    5.8395   -4.0263    0.0000 C   0  0
    6.5528   -4.4352    0.0000 C   0  0
    7.1622   -3.8832    0.0000 C   0  0
    6.8255   -3.1330    0.0000 C   0  0
    6.0081   -3.2216    0.0000 N   0  0
    5.4594   -2.6160    0.0000 C   0  0
    5.7095   -1.8380    0.0000 C   0  0
    4.6606   -2.7883    0.0000 O   0  0
    5.1608   -1.2324    0.0000 C   0  0
  1  2  2  0
  2  3  1  0
  3  4  2  0
  4  5  1  0
  5  6  2  0
  6  1  1  0
  1  7  1  0
  8  9  2  0
  9 10  1  0
 10 12  1  0
 11  8  1  0
  6  8  1  0
 11 12  2  0
 12 13  1  0
 13 14  2  0
 14 15  1  0
 15 16  2  0
 16 11  1  0
  4 17  1  0
 17 18  1  0
 18 19  2  0
 19 20  1  0
 20 25  2  0
 24 21  2  0
 21 18  1  0
 19 22  1  0
 22 23  1  0
 24 25  1  0
 25 26  1  0
 26 27  1  0
 27 28  1  0
 28 24  1  0
 28 29  1  0
 29 30  1  0
 29 31  2  0
 30 32  2  0
M  END
> <chembl_id>
CHEMBL2426284

$$$$

  SciTegic06051313552D

 28 32  0  0  0  0            999 V2000
   16.1567  -25.7209    0.0000 C   0  0
   16.1555  -26.5404    0.0000 C   0  0
   16.8636  -26.9494    0.0000 C   0  0
   17.5732  -26.5399    0.0000 C   0  0
   17.5704  -25.7172    0.0000 C   0  0
   16.8618  -25.3120    0.0000 C   0  0
   18.2511  -25.2651    0.0000 C   0  0
   19.0184  -25.5463    0.0000 C   0  0
   19.5229  -24.9034    0.0000 C   0  0
   19.0670  -24.2255    0.0000 N   0  0
   18.2814  -24.4485    0.0000 N   0  0
   19.4726  -23.5160    0.0000 C   0  0
   20.3374  -24.9336    0.0000 C   0  0
   21.5834  -24.2702    0.0000 C   0  0
   20.7688  -24.2435    0.0000 C   0  0
   21.9701  -24.9950    0.0000 C   0  0
   20.2876  -23.5156    0.0000 C   0  0
   20.6931  -22.8070    0.0000 C   0  0
   20.2814  -22.1000    0.0000 C   0  0
   19.4600  -22.1062    0.0000 C   0  0
   19.0582  -22.8154    0.0000 C   0  0
   21.5345  -25.6855    0.0000 C   0  0
   20.7194  -25.6545    0.0000 C   0  0
   20.2869  -26.3438    0.0000 C   0  0
   20.6683  -27.0645    0.0000 C   0  0
   21.4866  -27.0916    0.0000 C   0  0
   21.9154  -26.4016    0.0000 C   0  0
   15.4475  -26.9484    0.0000 Br  0  0
  1  2  2  0
  2  3  1  0
  3  4  2  0
  4  5  1  0
  5  6  2  0
  6  1  1  0
  7  8  1  0
  8  9  1  0
  9 10  1  0
 10 11  1  0
 11  7  2  0
  5  7  1  0
 10 12  1  0
 13 23  2  0
 16 14  1  0
 14 15  2  0
 15 13  1  0
  9 13  1  0
 16 22  2  0
 12 17  2  0
 17 18  1  0
 18 19  2  0
 19 20  1  0
 20 21  2  0
 21 12  1  0
 22 23  1  0
 23 24  1  0
 24 25  2  0
 25 26  1  0
 26 27  2  0
 27 22  1  0
  2 28  1  0
M  END
> <chembl_id>
CHEMBL2325091

$$$$

  SciTegic12161615062D

 34 37  0  0  0  0            999 V2000
    1.2990   -0.7500    0.0000 C   0  0
    1.2990    0.7500    0.0000 C   0  0
    0.0000    1.5000    0.0000 C   0  0
   -1.2990    0.7500    0.0000 C   0  0
   -1.2990   -0.7500    0.0000 C   0  0
    0.0000   -1.5000    0.0000 N   0  0
    2.5972    1.5031    0.0000 C   0  0
    3.6375    0.9049    0.0000 O   0  0
    2.5951    3.0039    0.0000 N   0  0
    2.3383   -1.3500    0.0000 O   0  0
   -0.0031    3.0008    0.0000 N   0  0
   -1.3039    3.7494    0.0000 C   0  0
   -1.3092    5.2494    0.0000 C   0  0
   -2.6108    5.9949    0.0000 C   0  0
   -3.9073    5.2404    0.0000 C   0  0
   -3.9021    3.7404    0.0000 C   0  0
   -2.6005    2.9949    0.0000 C   0  0
   -0.0136    6.0070    0.0000 O   0  0
   -0.0195    7.2070    0.0000 C   0  0
    3.8933    3.7570    0.0000 C   0  0
    3.8933    5.2571    0.0000 C   0  0
    5.1924    6.0071    0.0000 C   0  0
    6.4914    5.2571    0.0000 C   0  0
    6.4915    3.7571    0.0000 C   0  0
    5.1925    3.0071    0.0000 C   0  0
    7.7911    6.0075    0.0000 N   0  0
    7.7935    7.5076    0.0000 C   0  0
    9.0937    8.2556    0.0000 C   0  0
   10.3916    7.5036    0.0000 N   0  0
   10.3893    6.0036    0.0000 C   0  0
    9.0891    5.2556    0.0000 C   0  0
   11.4318    8.1019    0.0000 C   0  0
    5.1892    7.5079    0.0000 C   0  0
    4.1491    8.1064    0.0000 C   0  0
  1  2  1  0
  2  3  2  0
  3  4  1  0
  4  5  2  0
  5  6  1  0
  1  6  1  0
  7  8  2  0
  7  9  1  0
  2  7  1  0
  1 10  2  0
  3 11  1  0
 11 12  1  0
 12 13  2  0
 13 14  1  0
 14 15  2  0
 15 16  1  0
 16 17  2  0
 17 12  1  0
 13 18  1  0
 18 19  1  0
  9 20  1  0
 20 21  2  0
 21 22  1  0
 22 23  2  0
 23 24  1  0
 24 25  2  0
 25 20  1  0
 26 27  1  0
 26 31  1  0
 27 28  1  0
 28 29  1  0
 29 30  1  0
 30 31  1  0
 23 26  1  0
 29 32  1  0
 22 33  1  0
 33 34  1  0
M  END
> <chembl_id>
CHEMBL3780509

$$$$

  SciTegic12191611242D

 32 35  0  0  0  0            999 V2000
   -8.4598    0.3211    0.0000 C   0  0
   -7.2652    0.2078    0.0000 N   0  0
   -6.5020   -1.0835    0.0000 N   0  0
   -5.0380   -0.7567    0.0000 C   0  0
   -6.2729    1.3327    0.0000 C   0  0
   -4.9153    0.7255    0.0000 C   0  0
   -3.6217    1.4865    0.0000 N   0  0
   -2.3155    0.7475    0.0000 C   0  0
   -1.0028    1.5132    0.0000 N   0  0
    0.2917    0.7475    0.0000 C   0  0
    0.2917   -0.7475    0.0000 C   0  0
    1.7138   -1.2033    0.0000 C   0  0
    2.0907   -2.3426    0.0000 Cl  0  0
    2.5889    0.0182    0.0000 C   0  0
    1.7138    1.2033    0.0000 N   0  0
   -1.0028   -1.5132    0.0000 C   0  0
   -0.9971   -3.0138    0.0000 O   0  0
   -2.2935   -3.7700    0.0000 C   0  0
   -2.2878   -5.2708    0.0000 C   0  0  1  0  0  0
   -1.0692   -6.1235    0.0000 C   0  0
   -1.5244   -7.5527    0.0000 N   0  0
   -0.6391   -8.7615    0.0000 C   0  0
   -1.2435  -10.1353    0.0000 C   0  0
   -0.5345  -11.1034    0.0000 C   0  0
    0.5538   -8.6312    0.0000 O   0  0
   -3.0244   -7.5615    0.0000 C   0  0
   -3.4962   -6.1377    0.0000 C   0  0  2  0  0  0
   -4.9202   -5.6722    0.0000 C   0  0
   -2.3155   -0.7475    0.0000 N   0  0
   -5.8140   -6.4729    0.0000 F   0  0
   -5.1672   -4.4978    0.0000 F   0  0
   -6.0607   -5.2987    0.0000 F   0  0
  1  2  1  0
  2  3  1  0
  3  4  2  0
  2  5  1  0
  5  6  2  0
  4  6  1  0
  6  7  1  0
  7  8  1  0
  8  9  2  0
  9 10  1  0
 10 11  2  0
 11 12  1  0
 12 13  1  0
 12 14  2  0
 14 15  1  0
 10 15  1  0
 11 16  1  0
 16 17  1  0
 17 18  1  0
 19 18  1  1
 19 20  1  0
 20 21  1  0
 21 22  1  0
 22 23  1  0
 23 24  2  0
 22 25  2  0
 21 26  1  0
 26 27  1  0
 19 27  1  0
 27 28  1  6
 16 29  2  0
  8 29  1  0
 28 30  1  0
 28 31  1  0
 28 32  1  0
M  END
> <chembl_id>
CHEMBL3786802

$$$$

  SciTegic04091414152D

 37 41  0  0  0  0            999 V2000
    3.1568  -16.9372    0.0000 N   0  0
    3.1557  -17.7647    0.0000 C   0  0
    3.8705  -18.1775    0.0000 N   0  0
    3.8687  -16.5245    0.0000 C   0  0
    4.5841  -16.9336    0.0000 C   0  0
    4.5848  -17.7605    0.0000 C   0  0
    5.3001  -18.1714    0.0000 N   0  0
    6.0152  -17.7567    0.0000 C   0  0
    6.0104  -16.9267    0.0000 N   0  0
    5.2946  -16.5195    0.0000 C   0  0
    2.4409  -18.1765    0.0000 N   0  0
    6.7312  -18.1663    0.0000 O   0  0
    6.7224  -16.5099    0.0000 C   0  0
    2.4403  -19.0015    0.0000 C   0  0
    1.7254  -19.4119    0.0000 C   0  0
    1.7244  -20.2361    0.0000 C   0  0
    2.4391  -20.6500    0.0000 C   0  0
    3.1562  -20.2337    0.0000 C   0  0
    3.1537  -19.4108    0.0000 C   0  0
    2.4395  -21.4750    0.0000 N   0  0
    1.7248  -21.8885    0.0000 C   0  0
    1.7233  -22.7100    0.0000 C   0  0
    2.4361  -23.1259    0.0000 N   0  0
    3.1522  -22.7142    0.0000 C   0  0
    3.1554  -21.8866    0.0000 C   0  0
    2.4335  -23.9509    0.0000 C   0  0
    1.0117  -18.9981    0.0000 O   0  0
    0.2964  -19.4093    0.0000 C   0  0
    5.3018  -18.9964    0.0000 C   0  0  1  0  0  0
    4.6377  -19.4821    0.0000 C   0  0
    4.8943  -20.2662    0.0000 C   0  0
    5.7193  -20.2645    0.0000 N   0  0
    5.9725  -19.4794    0.0000 C   0  0
    6.1266  -20.9821    0.0000 C   0  0
    5.7092  -21.6937    0.0000 C   0  0
    6.9515  -20.9878    0.0000 O   0  0
    6.1166  -22.4110    0.0000 C   0  0
  1  2  2  0
  2  3  1  0
  3  6  2  0
  5  4  2  0
  4  1  1  0
  5  6  1  0
  6  7  1  0
  7  8  1  0
  8  9  1  0
  9 10  1  0
 10  5  1  0
  2 11  1  0
  8 12  2  0
  9 13  1  0
 11 14  1  0
 14 15  2  0
 15 16  1  0
 16 17  2  0
 17 18  1  0
 18 19  2  0
 19 14  1  0
 17 20  1  0
 20 21  1  0
 20 25  1  0
 21 22  1  0
 22 23  1  0
 23 24  1  0
 24 25  1  0
 23 26  1  0
 15 27  1  0
 27 28  1  0
 29  7  1  6
 29 30  1  0
 30 31  1  0
 31 32  1  0
 32 33  1  0
 33 29  1  0
 32 34  1  0
 34 35  1  0
 34 36  2  0
 35 37  2  0
M  END
> <chembl_id>
CHEMBL3087202

$$$$

  SciTegic05221516342D

 35 38  0  0  0  0            999 V2000
   22.1476  -18.7337    0.0000 C   0  0
   22.1476  -17.9165    0.0000 C   0  0
   21.4385  -17.5079    0.0000 C   0  0
   20.7335  -17.9165    0.0000 C   0  0
   22.8526  -19.1423    0.0000 O   0  0
   21.4385  -19.1423    0.0000 N   0  0
   22.8526  -17.5079    0.0000 F   0  0
   20.0245  -17.5079    0.0000 N   0  0
   20.0245  -16.6907    0.0000 C   0  0
   19.3154  -17.9165    0.0000 C   0  0
   21.4385  -22.4110    0.0000 N   0  0
   20.7335  -22.8196    0.0000 C   0  0
   20.0245  -22.4110    0.0000 N   0  0
   20.0245  -21.5938    0.0000 C   0  0
   20.7335  -21.1852    0.0000 C   0  0
   20.7335  -20.3680    0.0000 C   0  0
   21.4385  -19.9594    0.0000 C   0  0
   22.1476  -20.3680    0.0000 C   0  0
   22.1476  -21.1852    0.0000 C   0  0
   21.4385  -21.5938    0.0000 C   0  0
   22.8526  -19.9595    0.0000 O   0  0
   24.4482  -21.3533    0.0000 O   0  0
   23.6457  -21.1826    0.0000 C   0  0
   23.5616  -20.3680    0.0000 C   0  0  2  0  0  0
   24.3089  -20.0378    0.0000 C   0  0
   24.8568  -20.6442    0.0000 C   0  0
   19.3154  -21.1852    0.0000 N   0  0
   18.6063  -21.5938    0.0000 C   0  0
   18.6063  -22.4110    0.0000 C   0  0
   17.9013  -22.8196    0.0000 C   0  0
   17.1922  -22.4110    0.0000 C   0  0
   17.1922  -21.5938    0.0000 C   0  0
   17.9013  -21.1852    0.0000 C   0  0
   16.4873  -22.8196    0.0000 F   0  0
   17.9013  -23.6368    0.0000 Cl  0  0
  1  2  1  0
  2  3  2  0
  3  4  1  0
  1  5  2  0
  1  6  1  0
  2  7  1  0
  8  9  1  0
  8 10  1  0
  4  8  1  0
 11 12  1  0
 12 13  2  0
 13 14  1  0
 14 15  2  0
 15 16  1  0
 16 17  2  0
 17 18  1  0
 18 19  2  0
 19 20  1  0
 11 20  2  0
 15 20  1  0
 22 23  1  0
 23 24  1  0
 24 25  1  0
 25 26  1  0
 22 26  1  0
 24 21  1  1
 18 21  1  0
 28 29  1  0
 29 30  2  0
 30 31  1  0
 31 32  2  0
 32 33  1  0
 28 33  2  0
 31 34  1  0
 30 35  1  0
 27 28  1  0
 14 27  1  0
  6 17  1  0
M  END
> <chembl_id>
CHEMBL3357642

$$$$

  SciTegic09081514182D

 32 33  0  0  0  0            999 V2000
    1.2990   -0.7500    0.0000 C   0  0
    1.2990    0.7500    0.0000 C   0  0
    0.0000    1.5000    0.0000 C   0  0
   -1.2990    0.7500    0.0000 C   0  0
   -1.2990   -0.7500    0.0000 C   0  0
    0.0000   -1.5000    0.0000 C   0  0
   -2.5972   -1.5031    0.0000 C   0  0
   -2.5951   -3.0039    0.0000 C   0  0
   -3.8933   -3.7570    0.0000 C   0  0
   -3.8912   -5.2578    0.0000 C   0  0
   -4.9336   -3.1588    0.0000 O   0  0
   -5.1894   -6.0109    0.0000 C   0  0
   -5.1872   -7.5117    0.0000 C   0  0
   -6.2296   -5.4127    0.0000 O   0  0
   -6.4854   -8.2648    0.0000 C   0  0
   -6.4833   -9.7657    0.0000 C   0  0
   -7.7797  -10.5203    0.0000 C   0  0
   -7.7745  -12.0202    0.0000 C   0  0
   -6.4729  -12.7657    0.0000 C   0  0
   -5.1764  -12.0112    0.0000 C   0  0
   -5.1816  -10.5113    0.0000 C   0  0
    2.3383   -1.3500    0.0000 O   0  0
    2.3383    1.3500    0.0000 O   0  0
   -6.4687  -13.9657    0.0000 O   0  0
   -4.1351  -12.6076    0.0000 O   0  0
   -2.5916   -6.0087    0.0000 C   0  0
   -2.5912   -7.5095    0.0000 C   0  0
   -1.2916   -8.2603    0.0000 C   0  0
   -0.2524   -7.6603    0.0000 O   0  0
   -1.2912   -9.7611    0.0000 O   0  0
    0.0084  -10.5119    0.0000 C   0  0
    0.0087  -11.7119    0.0000 C   0  0
  1  2  2  0
  2  3  1  0
  3  4  2  0
  4  5  1  0
  5  6  2  0
  6  1  1  0
  5  7  1  0
  7  8  2  0
  8  9  1  0
  9 10  2  0
  9 11  1  0
 10 12  1  0
 12 13  1  0
 12 14  2  0
 13 15  2  0
 15 16  1  0
 16 17  2  0
 17 18  1  0
 18 19  2  0
 19 20  1  0
 20 21  2  0
 21 16  1  0
  1 22  1  0
  2 23  1  0
 19 24  1  0
 20 25  1  0
 10 26  1  0
 26 27  1  0
 27 28  1  0
 28 29  2  0
 28 30  1  0
 30 31  1  0
 31 32  1  0
M  END
> <chembl_id>
CHEMBL3402854

$$$$

  SciTegic04091414352D

 36 39  0  0  0  0            999 V2000
    9.5244   -5.5360    0.0000 N   0  0
   10.2376   -5.9358    0.0000 C   0  0
   10.2480   -6.7534    0.0000 O   0  0
   10.9405   -5.5181    0.0000 N   0  0
   11.6538   -5.9179    0.0000 C   0  0
   12.3567   -5.5002    0.0000 C   0  0
   13.0699   -5.9000    0.0000 C   0  0
   13.0802   -6.7176    0.0000 O   0  0
   13.7935   -7.1174    0.0000 C   0  0
   13.7728   -5.4822    0.0000 O   0  0
   13.7624   -4.6646    0.0000 C   0  0
    6.7128   -7.2071    0.0000 N   0  0
    5.9996   -6.8072    0.0000 C   0  0
    5.9893   -5.9896    0.0000 N   0  0
    6.6921   -5.5719    0.0000 C   0  0
    7.4054   -5.9717    0.0000 C   0  0
    8.1083   -5.5539    0.0000 C   0  0
    8.8215   -5.9538    0.0000 C   0  0
    8.8319   -6.7714    0.0000 C   0  0
    8.1290   -7.1891    0.0000 C   0  0
    7.4157   -6.7893    0.0000 C   0  0
    9.5451   -7.1712    0.0000 O   0  0
    9.1626   -9.2521    0.0000 O   0  0
    8.9001   -8.4778    0.0000 C   0  0
    9.5554   -7.9888    0.0000 C   0  0  2  0  0  0
   10.2230   -8.4610    0.0000 C   0  0
    9.9802   -9.2418    0.0000 C   0  0
    6.6818   -4.7542    0.0000 N   0  0
    5.9686   -4.3544    0.0000 C   0  0
    5.2657   -4.7722    0.0000 C   0  0
    4.5524   -4.3723    0.0000 C   0  0
    4.5421   -3.5547    0.0000 C   0  0
    5.2450   -3.1370    0.0000 C   0  0
    5.9582   -3.5368    0.0000 C   0  0
    3.8288   -3.1549    0.0000 F   0  0
    3.8495   -4.7901    0.0000 Cl  0  0
  1  2  1  0
  2  3  2  0
  2  4  1  0
  5  6  1  0
  6  7  1  0
  8  9  1  0
  7  8  1  0
 10 11  1  0
  7 10  1  0
  4  5  1  0
 12 13  1  0
 13 14  2  0
 14 15  1  0
 15 16  2  0
 16 17  1  0
 17 18  2  0
 18 19  1  0
 19 20  2  0
 20 21  1  0
 12 21  2  0
 16 21  1  0
 23 24  1  0
 24 25  1  0
 25 26  1  0
 26 27  1  0
 23 27  1  0
 25 22  1  1
 19 22  1  0
 29 30  1  0
 30 31  2  0
 31 32  1  0
 32 33  2  0
 33 34  1  0
 29 34  2  0
 32 35  1  0
 31 36  1  0
 28 29  1  0
 15 28  1  0
  1 18  1  0
M  END
> <chembl_id>
CHEMBL3092312

$$$$

  SciTegic12171313052D

 27 30  0  0  0  0            999 V2000
    6.9530   -3.6154    0.0000 C   0  0
    6.9518   -4.4350    0.0000 C   0  0
    7.6599   -4.8439    0.0000 C   0  0
    8.3695   -4.4345    0.0000 C   0  0
    8.3667   -3.6118    0.0000 C   0  0
    7.6581   -3.2066    0.0000 C   0  0
    7.6556   -2.3894    0.0000 N   0  0
    8.3621   -1.9787    0.0000 C   0  0
    9.0725   -2.3896    0.0000 N   0  0
    9.0626   -0.7552    0.0000 C   0  0
    8.3595   -1.1675    0.0000 N   0  0
    9.7765   -1.1615    0.0000 C   0  0
    9.7773   -1.9812    0.0000 C   0  0
   10.4837   -2.3882    0.0000 N   0  0
   11.1938   -1.9799    0.0000 C   0  0
   11.1930   -1.1601    0.0000 C   0  0
   10.4821   -0.7487    0.0000 N   0  0
   10.4848   -3.2026    0.0000 C   0  0
    9.7753   -3.6103    0.0000 C   0  0
    9.7746   -4.4268    0.0000 C   0  0
   10.4827   -4.8365    0.0000 C   0  0
   11.1929   -4.4238    0.0000 C   0  0
   11.1901   -3.6087    0.0000 C   0  0
   11.9013   -2.3888    0.0000 O   0  0
    7.6597   -5.6611    0.0000 O   0  0
    6.9519   -6.0695    0.0000 C   0  0
   11.9019   -4.8302    0.0000 N   0  0
  1  2  2  0
  2  3  1  0
  3  4  2  0
  4  5  1  0
  5  6  2  0
  6  1  1  0
  6  7  1  0
  7  8  1  0
  8  9  2  0
  9 13  1  0
 12 10  1  0
 10 11  2  0
 11  8  1  0
 12 13  2  0
 12 17  1  0
 13 14  1  0
 14 15  1  0
 15 16  1  0
 16 17  2  0
 18 19  2  0
 19 20  1  0
 20 21  2  0
 21 22  1  0
 22 23  2  0
 23 18  1  0
 14 18  1  0
 15 24  2  0
  3 25  1  0
 25 26  1  0
 22 27  1  0
M  END
> <chembl_id>
CHEMBL2437473

$$$$

  SciTegic04091414352D

 35 38  0  0  0  0            999 V2000
   12.1839   -8.3761    0.0000 C   0  0
    8.7463   -5.3496    0.0000 C   0  0
   11.5323   -7.8795    0.0000 C   0  0  2  0  0  0
    7.3848   -2.8536    0.0000 C   0  0
    7.3456   -4.4950    0.0000 C   0  0
   11.5519   -7.0589    0.0000 O   0  0
    8.0264   -5.7408    0.0000 N   0  0
   12.2719   -6.6635    0.0000 O   0  0
   10.8671   -5.8089    0.0000 C   0  0
    5.9645   -2.8196    0.0000 F   0  0
   11.5911   -5.4176    0.0000 N   0  0
    8.0852   -3.2789    0.0000 C   0  0
   11.9104   -9.1503    0.0000 C   0  0
    6.6649   -3.2449    0.0000 C   0  0
    9.4467   -5.7748    0.0000 C   0  0
   10.1667   -5.3835    0.0000 C   0  0
    8.0068   -6.5616    0.0000 C   0  0
   13.0115   -5.4515    0.0000 N   0  0
    5.9253   -4.4610    0.0000 Cl  0  0
   12.2915   -5.8428    0.0000 C   0  0
   13.0311   -4.6308    0.0000 C   0  0
   10.8515   -6.6295    0.0000 C   0  0
   10.8577   -8.3443    0.0000 C   0  0
    6.6452   -4.0656    0.0000 C   0  0
    9.4271   -6.5955    0.0000 C   0  0
   11.0897   -9.1307    0.0000 O   0  0
    8.7072   -6.9909    0.0000 N   0  0
   13.7119   -5.8768    0.0000 C   0  0
    8.0656   -4.0996    0.0000 C   0  0
   10.1274   -7.0249    0.0000 C   0  0
    8.7660   -4.5289    0.0000 N   0  0
   14.4284   -5.4839    0.0000 C   0  0
   15.1269   -5.9081    0.0000 N   0  0
   15.8435   -5.5153    0.0000 C   0  0
   15.1088   -6.7251    0.0000 C   0  0
 29  5  1  0
 18 20  1  0
 24 19  1  0
 30 25  1  0
 31 29  1  0
 27 25  2  0
 27 17  1  0
 20 11  1  0
  9 22  1  0
 22  6  1  0
 24 14  1  0
 15 25  1  0
  3  1  1  0
  2 31  1  0
 23  3  1  0
  7  2  1  0
 29 12  2  0
 26 13  1  0
 14  4  2  0
 20  8  2  0
 15 16  1  0
  2 15  2  0
 18 21  1  0
 18 28  1  0
 22 30  2  0
 16  9  2  0
 26 23  1  0
  4 12  1  0
  1 13  1  0
 17  7  2  0
  3  6  1  1
 14 10  1  0
 11  9  1  0
  5 24  2  0
 28 32  1  0
 32 33  1  0
 33 34  1  0
 33 35  1  0
M  END
> <chembl_id>
CHEMBL3092315

$$$$

  SciTegic02271217242D

 31 34  0  0  0  0            999 V2000
   -2.2836  -16.5194    0.0000 N   0  0
   -1.5672  -16.1060    0.0000 C   0  0
   -1.5700  -15.2755    0.0000 N   0  0
   -2.2854  -14.8664    0.0000 C   0  0
   -2.9984  -16.1065    0.0000 C   0  0
   -2.9972  -15.2776    0.0000 C   0  0
   -3.7852  -15.0202    0.0000 N   0  0
   -4.2734  -15.6901    0.0000 C   0  0
   -3.7872  -16.3614    0.0000 C   0  0
   -2.2872  -14.0414    0.0000 N   0  0
   -1.5737  -13.6273    0.0000 C   0  0
   -0.8614  -14.0412    0.0000 C   0  0
   -0.1483  -13.6278    0.0000 C   0  0
   -0.1497  -12.8019    0.0000 C   0  0
   -0.8701  -12.3912    0.0000 C   0  0
   -1.5802  -12.8069    0.0000 C   0  0
    0.5669  -14.0391    0.0000 Cl  0  0
    0.5633  -12.3869    0.0000 O   0  0
   -4.0389  -14.2352    0.0000 C   0  0
    1.2793  -12.7969    0.0000 C   0  0
    1.2793  -13.6219    0.0000 C   0  0
    1.9944  -14.0318    0.0000 C   0  0
    2.7084  -13.6167    0.0000 C   0  0
    2.7028  -12.7875    0.0000 C   0  0
    1.9871  -12.3813    0.0000 C   0  0
    3.4143  -12.3700    0.0000 C   0  0
    4.1317  -12.7774    0.0000 F   0  0
    3.4085  -11.5450    0.0000 F   0  0
    4.1250  -11.9500    0.0000 F   0  0
   -4.8456  -14.0624    0.0000 C   0  0
   -5.0993  -13.2774    0.0000 O   0  0
 14 15  1  0
  3  4  2  0
 15 16  2  0
 16 11  1  0
  6  7  1  0
 13 17  1  0
  7  8  1  0
 14 18  1  0
  8  9  2  0
  7 19  1  0
  9  5  1  0
 18 20  1  0
  4  6  1  0
 20 21  2  0
  4 10  1  0
 21 22  1  0
  5  6  2  0
 22 23  2  0
 10 11  1  0
 23 24  1  0
  1  2  2  0
 24 25  2  0
 25 20  1  0
 11 12  2  0
 24 26  1  0
  5  1  1  0
 26 27  1  0
 12 13  1  0
 26 28  1  0
  2  3  1  0
 26 29  1  0
 13 14  2  0
 19 30  1  0
 30 31  1  0
M  END
> <chembl_id>
CHEMBL1923007

$$$$

  SciTegic12201610342D

 40 43  0  0  0  0            999 V2000
    2.5951   -3.0039    0.0000 C   0  0
    3.8933   -3.7570    0.0000 C   0  0
    3.8916   -4.9570    0.0000 C   0  0
    1.5548   -3.6021    0.0000 O   0  0
    2.5973   -1.5031    0.0000 N   0  0
    1.2990   -0.7500    0.0000 C   0  0
    1.2990    0.7500    0.0000 C   0  0
    0.0000    1.5000    0.0000 C   0  0
   -1.2990    0.7500    0.0000 C   0  0
   -1.2990   -0.7500    0.0000 C   0  0
    0.0000   -1.5000    0.0000 C   0  0
   -0.0031    3.0008    0.0000 O   0  0
   -3.9021    3.7404    0.0000 C   0  0
   -2.6005    2.9949    0.0000 N   0  0
   -1.3039    3.7494    0.0000 C   0  0
   -1.3092    5.2494    0.0000 C   0  0
   -2.6108    5.9949    0.0000 C   0  0
   -3.9073    5.2404    0.0000 N   0  0
   -0.0136    6.0070    0.0000 S   0  0
   -0.0195    7.2070    0.0000 C   0  0
   -5.2008    2.9882    0.0000 N   0  0
   -6.5021    3.7360    0.0000 C   0  0
   -7.8012    2.9860    0.0000 C   0  0
   -9.1002    3.7360    0.0000 C   0  0
   -9.1002    5.2360    0.0000 C   0  0
   -7.8012    5.9860    0.0000 C   0  0
   -6.5021    5.2360    0.0000 C   0  0
   -7.8043    1.4852    0.0000 O   0  0
   -8.8444    0.8867    0.0000 C   0  0
  -10.3999    5.9864    0.0000 N   0  0
  -11.7002    5.2385    0.0000 C   0  0
  -12.9981    5.9906    0.0000 C   0  0
  -12.9957    7.4906    0.0000 N   0  0
  -11.6955    8.2385    0.0000 C   0  0
  -10.3976    7.4864    0.0000 C   0  0
  -14.2927    8.2457    0.0000 C   0  0
  -15.3339    7.6492    0.0000 O   0  0
  -14.2882    9.7465    0.0000 C   0  0
  -15.3252   10.3503    0.0000 C   0  0
  -13.2470   10.3431    0.0000 C   0  0
  1  2  1  0
  2  3  2  0
  1  4  2  0
  1  5  1  0
  6  7  1  0
  7  8  2  0
  8  9  1  0
  9 10  2  0
 10 11  1  0
  6 11  2  0
 13 14  1  0
 14 15  2  0
 15 16  1  0
 16 17  2  0
 17 18  1  0
 13 18  2  0
 19 20  1  0
 16 19  1  0
 22 23  1  0
 23 24  2  0
 24 25  1  0
 25 26  2  0
 26 27  1  0
 22 27  2  0
 28 29  1  0
 23 28  1  0
 30 31  1  0
 31 32  1  0
 32 33  1  0
 33 34  1  0
 34 35  1  0
 30 35  1  0
 36 37  2  0
 36 38  1  0
 38 39  1  0
 38 40  1  0
 33 36  1  0
 25 30  1  0
 21 22  1  0
 13 21  1  0
 12 15  1  0
  8 12  1  0
  5  6  1  0
M  END
> <chembl_id>
CHEMBL3798887

$$$$

  SciTegic12131613492D

 26 30  0  0  0  0            999 V2000
    0.8955    2.0810    0.0000 C   0  0
    1.7138    1.2033    0.0000 C   0  0
    2.8908    1.4370    0.0000 C   0  0
   -1.0028    1.5132    0.0000 N   0  0
   -2.3155    0.7475    0.0000 C   0  0
   -2.3155   -0.7475    0.0000 N   0  0
   -1.0028   -1.5132    0.0000 C   0  0
    0.2917    0.7475    0.0000 C   0  0
    0.2917   -0.7475    0.0000 C   0  0
    1.7138   -1.2033    0.0000 C   0  0
    2.5889    0.0182    0.0000 O   0  0
   -3.6168    1.4950    0.0000 C   0  0
   -4.9669    0.8708    0.0000 C   0  0
   -5.9732    1.9832    0.0000 N   0  0
   -5.2262    3.2840    0.0000 N   0  0
   -3.7582    2.9755    0.0000 N   0  0
   -0.9971   -3.0138    0.0000 N   0  0
   -2.2935   -3.7700    0.0000 C   0  0
   -4.6304   -4.2656    0.0000 N   0  0
   -3.6203   -3.1531    0.0000 N   0  0
   -3.8857   -5.5600    0.0000 C   0  0
   -2.4241   -5.2456    0.0000 C   0  0
   -1.4032   -6.3500    0.0000 C   0  0
   -1.8757   -7.7944    0.0000 C   0  0
   -3.3373   -8.1089    0.0000 C   0  0
   -4.3620   -6.9866    0.0000 C   0  0
  2  1  1  0
  3  2  1  0
  8  4  1  0
  4  5  2  0
  5  6  1  0
  6  7  2  0
  7  9  1  0
  8  9  2  0
  9 10  1  0
 10 11  1  0
 11  2  1  0
  2  8  1  0
  5 12  1  0
 12 13  2  0
 13 14  1  0
 14 15  1  0
 15 16  2  0
 16 12  1  0
  7 17  1  0
 17 18  1  0
 18 22  1  0
 21 19  1  0
 19 20  1  0
 20 18  2  0
 21 22  2  0
 22 23  1  0
 23 24  2  0
 24 25  1  0
 25 26  2  0
 26 21  1  0
M  END
> <chembl_id>
CHEMBL3759696

$$$$

  SciTegic06271217572D

 24 26  0  0  0  0            999 V2000
    5.9367    1.3867    0.0000 C   0  0
    5.9356    0.5599    0.0000 C   0  0
    6.6500    0.1472    0.0000 C   0  0
    6.6482    1.7992    0.0000 C   0  0
    7.3632    1.3904    0.0000 C   0  0
    7.3634    0.5598    0.0000 C   0  0
    8.1534    0.3033    0.0000 N   0  0
    8.1530    1.6472    0.0000 C   0  0
    8.6383    0.9742    0.0000 C   0  0
    9.4618    1.0588    0.0000 C   0  0
    9.8010    1.8157    0.0000 N   0  0
    9.3106    2.4889    0.0000 C   0  0
    8.4888    2.4010    0.0000 C   0  0
    9.9449    0.3906    0.0000 C   0  0
    5.2212    0.1481    0.0000 O   0  0
    4.5122    0.5610    0.0000 C   0  0
    8.4093   -0.4805    0.0000 C   0  0
    7.8584   -1.0940    0.0000 C   0  0
    8.1142   -1.8778    0.0000 C   0  0
    7.5633   -2.4912    0.0000 C   0  0
    7.8191   -3.2751    0.0000 N   0  0
    9.6078   -0.3618    0.0000 F   0  0
   10.7651    0.4748    0.0000 F   0  0
   10.5271   -0.1916    0.0000 F   0  0
 11 12  1  0
  2  3  1  0
 12 13  2  0
 13  8  1  0
  3  6  2  0
 10 14  1  0
  6  7  1  0
  2 15  1  0
  7  9  1  0
 15 16  1  0
  8  5  1  0
  7 17  1  0
  1  2  2  0
 17 18  1  0
  5  4  2  0
 18 19  1  0
  8  9  2  0
 19 20  1  0
  4  1  1  0
 20 21  1  0
  9 10  1  0
 14 22  1  0
  5  6  1  0
 14 23  1  0
 10 11  2  0
 14 24  1  0
M  END
> <chembl_id>
CHEMBL2012574

$$$$

  SciTegic10311316282D

 35 39  0  0  0  0            999 V2000
   16.1983  -14.6200    0.0000 S   0  0
   15.5868  -15.1737    0.0000 O   0  0
   16.3721  -15.4264    0.0000 O   0  0
    9.9572  -15.7465    0.0000 N   0  0
    9.9570  -16.5739    0.0000 C   0  0
   10.6724  -16.9858    0.0000 N   0  0
   10.6685  -15.3328    0.0000 C   0  0
   11.3844  -15.7411    0.0000 C   0  0
   11.3857  -16.5675    0.0000 C   0  0
   12.1721  -16.8217    0.0000 N   0  0
   12.6569  -16.1523    0.0000 C   0  0
   12.1701  -15.4845    0.0000 C   0  0
   12.4324  -17.6080    0.0000 C   0  0
   11.9486  -18.2762    0.0000 C   0  0
   12.4345  -18.9428    0.0000 C   0  0
   13.2188  -18.6867    0.0000 C   0  0
   13.2174  -17.8617    0.0000 C   0  0
   10.6650  -14.5079    0.0000 N   0  0
   12.4238  -14.6995    0.0000 C   0  0
   13.2305  -14.5267    0.0000 C   0  0
   11.8708  -14.0872    0.0000 O   0  0
   13.7776  -15.1403    0.0000 C   0  0
   14.5836  -14.9680    0.0000 C   0  0
   14.8380  -14.1823    0.0000 C   0  0
   14.2802  -13.5687    0.0000 C   0  0
   13.4763  -13.7441    0.0000 C   0  0
   15.6445  -14.0084    0.0000 N   0  0
   17.0048  -14.4461    0.0000 C   0  0
   17.5542  -15.0595    0.0000 C   0  0
   18.3600  -14.8862    0.0000 C   0  0
   18.6133  -14.1001    0.0000 C   0  0
   18.0547  -13.4872    0.0000 C   0  0
   17.2510  -13.6637    0.0000 C   0  0
   17.2991  -15.8441    0.0000 F   0  0
   16.6941  -13.0551    0.0000 F   0  0
  2  1  2  0
  1  3  2  0
  4  5  2  0
  5  6  1  0
  6  9  2  0
  8  7  2  0
  7  4  1  0
  8  9  1  0
  9 10  1  0
 10 11  1  0
 11 12  2  0
 12  8  1  0
 13 14  1  0
 14 15  1  0
 15 16  1  0
 16 17  1  0
 17 13  1  0
 10 13  1  0
  7 18  1  0
 12 19  1  0
 19 20  1  0
 19 21  2  0
 20 22  2  0
 22 23  1  0
 23 24  2  0
 24 25  1  0
 25 26  2  0
 26 20  1  0
 24 27  1  0
 27  1  1  0
  1 28  1  0
 28 29  2  0
 29 30  1  0
 30 31  2  0
 31 32  1  0
 32 33  2  0
 33 28  1  0
 29 34  1  0
 33 35  1  0
M  END
> <chembl_id>
CHEMBL2386995

$$$$

  SciTegic12191611242D

 28 30  0  0  0  0            999 V2000
   -6.2193    5.8633    0.0000 F   0  0
   -5.1815    5.2608    0.0000 C   0  0
   -5.1852    3.7608    0.0000 C   0  0
   -3.8880    3.0076    0.0000 C   0  0
   -3.8807    6.0076    0.0000 C   0  0
   -3.8777    7.2076    0.0000 Cl  0  0
   -2.5835    5.2544    0.0000 C   0  0
   -2.5870    3.7544    0.0000 C   0  0
   -1.2907    2.9981    0.0000 N   0  0
   -1.2964    1.4973    0.0000 C   0  0
   -2.6111    0.7486    0.0000 N   0  0
   -2.6111   -0.7486    0.0000 C   0  0
   -1.2964   -1.4973    0.0000 N   0  0
    0.0000   -0.7486    0.0000 C   0  0
    1.2964   -1.4973    0.0000 C   0  0
    2.5929   -0.7486    0.0000 C   0  0
    3.8911   -1.5017    0.0000 O   0  0
    3.8890   -3.0026    0.0000 C   0  0
    5.1872   -3.7556    0.0000 C   0  0
    6.2252   -4.3578    0.0000 C   0  0
    2.5929    0.7486    0.0000 C   0  0
    3.8911    1.5017    0.0000 N   0  0
    3.8890    3.0026    0.0000 C   0  0
    5.1872    3.7556    0.0000 C   0  0
    5.1855    4.9556    0.0000 C   0  0
    2.8487    3.6008    0.0000 O   0  0
    1.2964    1.4973    0.0000 C   0  0
    0.0000    0.7486    0.0000 C   0  0
  1  2  1  0
  2  3  1  0
  3  4  2  0
  2  5  2  0
  5  6  1  0
  5  7  1  0
  7  8  2  0
  4  8  1  0
  8  9  1  0
  9 10  1  0
 10 11  2  0
 11 12  1  0
 12 13  2  0
 13 14  1  0
 14 15  2  0
 15 16  1  0
 16 17  1  0
 17 18  1  0
 18 19  1  0
 19 20  3  0
 16 21  2  0
 21 22  1  0
 22 23  1  0
 23 24  1  0
 24 25  2  0
 23 26  2  0
 21 27  1  0
 27 28  2  0
 14 28  1  0
 10 28  1  0
M  END
> <chembl_id>
CHEMBL3787386

$$$$

          11280715532D 1   1.00000     0.00000     0

 33 34  0     0  0            999 V2000
   -3.3840  -26.9622    0.0000 C   0  0  0  0  0  0           0  0  0
   -2.6622  -26.5627    0.0000 C   0  0  0  0  0  0           0  0  0
   -1.9552  -26.9880    0.0000 C   0  0  0  0  0  0           0  0  0
   -1.2335  -26.5883    0.0000 C   0  0  0  0  0  0           0  0  0
   -0.5266  -27.0136    0.0000 C   0  0  0  0  0  0           0  0  0
   -1.2187  -25.7635    0.0000 O   0  0  0  0  0  0           0  0  0
    0.1951  -26.6140    0.0000 C   0  0  0  0  0  0           0  0  0
    0.9021  -27.0392    0.0000 C   0  0  0  0  0  0           0  0  0
    1.6239  -26.6396    0.0000 C   0  0  0  0  0  0           0  0  0
    2.3307  -27.0651    0.0000 C   0  0  0  0  0  0           0  0  0
    0.1879  -25.7853    0.0000 O   0  0  0  0  0  0           0  0  0
   -4.0882  -26.5370    0.0000 C   0  0  0  0  0  0           0  0  0
   -4.8094  -26.9359    0.0000 C   0  0  0  0  0  0           0  0  0
   -4.8247  -27.7616    0.0000 C   0  0  0  0  0  0           0  0  0
   -4.1128  -28.1868    0.0000 C   0  0  0  0  0  0           0  0  0
   -3.3944  -27.7854    0.0000 C   0  0  0  0  0  0           0  0  0
    2.3107  -27.8900    0.0000 C   0  0  0  0  0  0           0  0  0
    3.0167  -28.3154    0.0000 C   0  0  0  0  0  0           0  0  0
    3.7396  -27.9159    0.0000 C   0  0  0  0  0  0           0  0  0
    3.7520  -27.0867    0.0000 C   0  0  0  0  0  0           0  0  0
    3.0454  -26.6651    0.0000 C   0  0  0  0  0  0           0  0  0
   -5.5460  -28.1622    0.0000 O   0  0  0  0  0  0           0  0  0
   -6.2535  -27.7378    0.0000 C   0  0  0  0  0  0           0  0  0
   -4.0726  -25.7121    0.0000 O   0  0  0  0  0  0           0  0  0
   -3.3503  -25.3133    0.0000 C   0  0  0  0  0  0           0  0  0
    3.0568  -25.8401    0.0000 O   0  0  0  0  0  0           0  0  0
    3.7769  -25.4375    0.0000 C   0  0  0  0  0  0           0  0  0
    4.4470  -28.3404    0.0000 O   0  0  0  0  0  0           0  0  0
    4.4330  -29.1652    0.0000 C   0  0  0  0  0  0           0  0  0
   -5.5162  -26.5102    0.0000 O   0  0  0  0  0  0           0  0  0
   -5.5010  -25.6855    0.0000 C   0  0  0  0  0  0           0  0  0
    4.4725  -26.6848    0.0000 O   0  0  0  0  0  0           0  0  0
    5.1808  -27.1077    0.0000 C   0  0  0  0  0  0           0  0  0
 10 17  2  0     0  0
  8  9  2  0     0  0
 17 18  1  0     0  0
  4  5  1  0     0  0
 18 19  2  0     0  0
  9 10  1  0     0  0
 19 20  1  0     0  0
  2  3  2  0     0  0
 20 21  2  0     0  0
 21 10  1  0     0  0
  7 11  1  0     0  0
 14 22  1  0     0  0
  4  6  2  0     0  0
 22 23  1  0     0  0
  1 12  2  0     0  0
 12 24  1  0     0  0
  1  2  1  0     0  0
 24 25  1  0     0  0
 12 13  1  0     0  0
 21 26  1  0     0  0
  5  7  2  0     0  0
 26 27  1  0     0  0
 13 14  2  0     0  0
 19 28  1  0     0  0
  3  4  1  0     0  0
 28 29  1  0     0  0
 14 15  1  0     0  0
 13 30  1  0     0  0
  7  8  1  0     0  0
 30 31  1  0     0  0
 15 16  2  0     0  0
 20 32  1  0     0  0
 16  1  1  0     0  0
 32 33  1  0     0  0
M  END
> <chembl_id>
CHEMBL268937

$$$$

  SciTegic12171313052D

 29 32  0  0  0  0            999 V2000
   10.8697   -3.0005    0.0000 C   0  0
   10.8686   -3.8200    0.0000 C   0  0
   11.5766   -4.2290    0.0000 C   0  0
   12.2863   -3.8195    0.0000 C   0  0
   12.2834   -2.9969    0.0000 C   0  0
   11.5748   -2.5916    0.0000 C   0  0
   11.5724   -1.7744    0.0000 N   0  0
   12.2789   -1.3637    0.0000 C   0  0
   12.9893   -1.7746    0.0000 N   0  0
   12.9794   -0.1402    0.0000 C   0  0
   12.2763   -0.5526    0.0000 N   0  0
   13.6933   -0.5465    0.0000 C   0  0
   13.6940   -1.3663    0.0000 C   0  0
   14.4004   -1.7732    0.0000 N   0  0
   15.1106   -1.3649    0.0000 C   0  0
   15.1098   -0.5452    0.0000 C   0  0
   14.3989   -0.1337    0.0000 N   0  0
   14.4016   -2.5877    0.0000 C   0  0
   13.6921   -2.9954    0.0000 C   0  0
   13.6914   -3.8118    0.0000 C   0  0
   14.3994   -4.2215    0.0000 C   0  0
   15.1097   -3.8088    0.0000 C   0  0
   15.1069   -2.9938    0.0000 C   0  0
   15.8181   -1.7738    0.0000 O   0  0
   14.4002   -5.0387    0.0000 N   0  0
   15.1083   -5.4467    0.0000 C   0  0
   15.1090   -6.2639    0.0000 O   0  0
   15.8156   -5.0374    0.0000 C   0  0
   16.5237   -5.4454    0.0000 C   0  0
  1  2  2  0
  2  3  1  0
  3  4  2  0
  4  5  1  0
  5  6  2  0
  6  1  1  0
  6  7  1  0
  7  8  1  0
  8  9  2  0
  9 13  1  0
 12 10  1  0
 10 11  2  0
 11  8  1  0
 12 13  2  0
 12 17  1  0
 13 14  1  0
 14 15  1  0
 15 16  1  0
 16 17  2  0
 18 19  2  0
 19 20  1  0
 20 21  2  0
 21 22  1  0
 22 23  2  0
 23 18  1  0
 14 18  1  0
 15 24  2  0
 21 25  1  0
 25 26  1  0
 26 27  2  0
 26 28  1  0
 28 29  2  0
M  END
> <chembl_id>
CHEMBL2437487

$$$$

  SciTegic12201616152D

 22 24  0  0  0  0            999 V2000
    3.8942   -1.4964    0.0000 N   0  0
    5.1929   -0.7441    0.0000 C   0  0
    6.2333   -1.3420    0.0000 O   0  0
    5.1908    0.4559    0.0000 N   0  0
   -1.2964    1.4973    0.0000 N   0  0
   -2.6111    0.7486    0.0000 C   0  0
   -2.6111   -0.7486    0.0000 N   0  0
   -1.2964   -1.4973    0.0000 C   0  0
    0.0000   -0.7486    0.0000 C   0  0
    1.2964   -1.4973    0.0000 C   0  0
    2.5929   -0.7486    0.0000 C   0  0
    2.5929    0.7486    0.0000 C   0  0
    1.2964    1.4973    0.0000 C   0  0
    0.0000    0.7486    0.0000 C   0  0
   -1.2907   -2.9981    0.0000 N   0  0
   -2.5870   -3.7544    0.0000 C   0  0
   -2.5835   -5.2544    0.0000 C   0  0
   -3.8807   -6.0076    0.0000 C   0  0
   -5.1815   -5.2608    0.0000 C   0  0
   -5.1852   -3.7608    0.0000 C   0  0
   -3.8880   -3.0076    0.0000 C   0  0
   -6.2193   -5.8633    0.0000 Br  0  0
  1  2  1  0
  2  3  2  0
  2  4  1  0
  5  6  1  0
  6  7  2  0
  7  8  1  0
  8  9  2  0
  9 10  1  0
 10 11  2  0
 11 12  1  0
 12 13  2  0
 13 14  1  0
  5 14  2  0
  9 14  1  0
 16 17  1  0
 17 18  2  0
 18 19  1  0
 19 20  2  0
 20 21  1  0
 16 21  2  0
 19 22  1  0
 15 16  1  0
  8 15  1  0
  1 11  1  0
M  END
> <chembl_id>
CHEMBL3814959

$$$$

  CDK    6/4/10,11:42

 29 30  0  0  0  0  0  0  0  0999 V2000
    7.9208  -11.6458    0.0000 C   0  0  0  0  0  0  0  0  0  0  0  0
    8.6353  -11.2333    0.0000 C   0  0  0  0  0  0  0  0  0  0  0  0
    9.3498  -11.6458    0.0000 C   0  0  0  0  0  0  0  0  0  0  0  0
   10.0642  -11.2333    0.0000 C   0  0  0  0  0  0  0  0  0  0  0  0
   10.7787  -11.6458    0.0000 C   0  0  0  0  0  0  0  0  0  0  0  0
   10.0642  -10.4083    0.0000 O   0  0  0  0  0  0  0  0  0  0  0  0
   11.4932  -11.2333    0.0000 C   0  0  0  0  0  0  0  0  0  0  0  0
   12.2077  -11.6458    0.0000 C   0  0  0  0  0  0  0  0  0  0  0  0
   11.4932  -10.4083    0.0000 O   0  0  0  0  0  0  0  0  0  0  0  0
   12.9221  -11.2333    0.0000 C   0  0  0  0  0  0  0  0  0  0  0  0
   13.6366  -11.6458    0.0000 C   0  0  0  0  0  0  0  0  0  0  0  0
   13.6347  -12.4719    0.0000 C   0  0  0  0  0  0  0  0  0  0  0  0
   14.3483  -12.8843    0.0000 C   0  0  0  0  0  0  0  0  0  0  0  0
   15.0638  -12.4718    0.0000 C   0  0  0  0  0  0  0  0  0  0  0  0
   15.0612  -11.6425    0.0000 C   0  0  0  0  0  0  0  0  0  0  0  0
   14.3469  -11.2338    0.0000 C   0  0  0  0  0  0  0  0  0  0  0  0
    7.2068  -11.2304    0.0000 C   0  0  0  0  0  0  0  0  0  0  0  0
    6.4928  -11.6422    0.0000 C   0  0  0  0  0  0  0  0  0  0  0  0
    6.4924  -12.4681    0.0000 C   0  0  0  0  0  0  0  0  0  0  0  0
    7.2119  -12.8804    0.0000 C   0  0  0  0  0  0  0  0  0  0  0  0
    7.9229  -12.4662    0.0000 C   0  0  0  0  0  0  0  0  0  0  0  0
    5.7786  -11.2294    0.0000 O   0  0  0  0  0  0  0  0  0  0  0  0
    5.7790  -10.4044    0.0000 C   0  0  0  0  0  0  0  0  0  0  0  0
    5.7785  -12.8815    0.0000 O   0  0  0  0  0  0  0  0  0  0  0  0
    5.7796  -13.7065    0.0000 C   0  0  0  0  0  0  0  0  0  0  0  0
   15.7742  -11.2275    0.0000 O   0  0  0  0  0  0  0  0  0  0  0  0
   15.7788  -12.8833    0.0000 O   0  0  0  0  0  0  0  0  0  0  0  0
   15.7799  -13.7083    0.0000 C   0  0  0  0  0  0  0  0  0  0  0  0
   15.7713  -10.4025    0.0000 C   0  0  0  0  0  0  0  0  0  0  0  0
 14 15  1  0  0  0  0 
  7  8  1  0  0  0  0 
 15 16  2  0  0  0  0 
 16 11  1  0  0  0  0 
  1 17  2  0  0  0  0 
  7  9  1  0  0  0  0 
 17 18  1  0  0  0  0 
  4  5  1  0  0  0  0 
 18 19  2  0  0  0  0 
  8 10  2  0  0  0  0 
 19 20  1  0  0  0  0 
  2  3  2  0  0  0  0 
 20 21  2  0  0  0  0 
 21  1  1  0  0  0  0 
 10 11  1  0  0  0  0 
 18 22  1  0  0  0  0 
  4  6  2  0  0  0  0 
 22 23  1  0  0  0  0 
 11 12  2  0  0  0  0 
 19 24  1  0  0  0  0 
  1  2  1  0  0  0  0 
 24 25  1  0  0  0  0 
 12 13  1  0  0  0  0 
 15 26  1  0  0  0  0 
  5  7  2  0  0  0  0 
 14 27  1  0  0  0  0 
 13 14  2  0  0  0  0 
 27 28  1  0  0  0  0 
  3  4  1  0  0  0  0 
 26 29  1  0  0  0  0 
M  END
> <chembl_id>
CHEMBL128748

$$$$

  SciTegic12171313052D

 31 34  0  0  0  0            999 V2000
    0.6218  -10.0374    0.0000 C   0  0
    0.6206  -10.8569    0.0000 C   0  0
    1.3287  -11.2659    0.0000 C   0  0
    2.0384  -10.8564    0.0000 C   0  0
    2.0355  -10.0338    0.0000 C   0  0
    1.3269   -9.6285    0.0000 C   0  0
    1.3245   -8.8113    0.0000 N   0  0
    2.0310   -8.4006    0.0000 C   0  0
    2.7413   -8.8115    0.0000 N   0  0
    2.7314   -7.1771    0.0000 C   0  0
    2.0284   -7.5895    0.0000 N   0  0
    3.4453   -7.5834    0.0000 C   0  0
    3.4461   -8.4032    0.0000 C   0  0
    4.1525   -8.8101    0.0000 N   0  0
    4.8626   -8.4018    0.0000 C   0  0
    4.8619   -7.5821    0.0000 C   0  0
    4.1509   -7.1706    0.0000 N   0  0
    4.1537   -9.6246    0.0000 C   0  0
    3.4442  -10.0323    0.0000 C   0  0
    3.4435  -10.8487    0.0000 C   0  0
    4.1515  -11.2584    0.0000 C   0  0
    4.8618  -10.8458    0.0000 C   0  0
    4.8590  -10.0307    0.0000 C   0  0
    5.5702   -8.8107    0.0000 O   0  0
    1.3285  -12.0831    0.0000 O   0  0
    0.6207  -12.4915    0.0000 C   0  0
    5.5707  -11.2522    0.0000 N   0  0
    5.5733  -12.0694    0.0000 C   0  0
    6.2822  -12.4757    0.0000 O   0  0
    4.8668  -12.4801    0.0000 C   0  0
    4.1579  -12.0737    0.0000 C   0  0
  1  2  2  0
  2  3  1  0
  3  4  2  0
  4  5  1  0
  5  6  2  0
  6  1  1  0
  6  7  1  0
  7  8  1  0
  8  9  2  0
  9 13  1  0
 12 10  1  0
 10 11  2  0
 11  8  1  0
 12 13  2  0
 12 17  1  0
 13 14  1  0
 14 15  1  0
 15 16  1  0
 16 17  2  0
 18 19  2  0
 19 20  1  0
 20 21  2  0
 21 22  1  0
 22 23  2  0
 23 18  1  0
 14 18  1  0
 15 24  2  0
  3 25  1  0
 25 26  1  0
 22 27  1  0
 27 28  1  0
 28 29  2  0
 28 30  1  0
 30 31  2  0
M  END
> <chembl_id>
CHEMBL2437479

$$$$

  SciTegic04301217312D

 14 16  0  0  0  0            999 V2000
    3.2972  -19.8419    0.0000 C   0  0
    3.2961  -20.6678    0.0000 C   0  0
    4.0097  -21.0800    0.0000 C   0  0
    4.0079  -19.4297    0.0000 C   0  0
    4.7221  -19.8382    0.0000 C   0  0
    4.7269  -20.6633    0.0000 C   0  0
    5.5131  -20.9137    0.0000 N   0  0
    5.5053  -19.5787    0.0000 N   0  0
    5.9960  -20.2419    0.0000 C   0  0
    6.7784  -19.9801    0.0000 N   0  0
    6.7712  -19.1551    0.0000 N   0  0
    5.9844  -18.9071    0.0000 C   0  0
    5.7230  -18.1261    0.0000 S   0  0
    5.7719  -21.6956    0.0000 C   0  0
  6  7  1  0
  7  9  1  0
  8  5  1  0
  8  9  1  0
  1  2  2  0
  5  4  2  0
  4  1  1  0
  5  6  1  0
  9 10  2  0
 10 11  1  0
 11 12  1  0
 12  8  1  0
  2  3  1  0
 12 13  2  0
  3  6  2  0
  7 14  1  0
M  END
> <chembl_id>
CHEMBL1944922

$$$$

  SciTegic12171313052D

 35 38  0  0  0  0            999 V2000
   16.4538  -17.4829    0.0000 C   0  0
   16.4527  -18.3024    0.0000 C   0  0
   17.1607  -18.7114    0.0000 C   0  0
   17.8704  -18.3020    0.0000 C   0  0
   17.8676  -17.4793    0.0000 C   0  0
   17.1590  -17.0740    0.0000 C   0  0
   17.1565  -16.2569    0.0000 N   0  0
   17.8630  -15.8461    0.0000 C   0  0
   18.5734  -16.2571    0.0000 N   0  0
   18.5635  -14.6227    0.0000 C   0  0
   17.8604  -15.0350    0.0000 N   0  0
   19.2774  -15.0290    0.0000 C   0  0
   19.2782  -15.8487    0.0000 C   0  0
   19.9846  -16.2556    0.0000 N   0  0
   20.6947  -15.8474    0.0000 C   0  0
   20.6939  -15.0276    0.0000 C   0  0
   19.9830  -14.6162    0.0000 N   0  0
   19.9857  -17.0701    0.0000 C   0  0
   19.2762  -17.4778    0.0000 C   0  0
   19.2755  -18.2942    0.0000 C   0  0
   19.9836  -18.7040    0.0000 C   0  0
   20.6938  -18.2913    0.0000 C   0  0
   20.6910  -17.4762    0.0000 C   0  0
   21.4022  -16.2563    0.0000 O   0  0
   17.1605  -19.5286    0.0000 O   0  0
   16.4527  -19.9370    0.0000 C   0  0
   21.4028  -18.6977    0.0000 N   0  0
   22.1092  -18.2869    0.0000 C   0  0
   22.8182  -18.6933    0.0000 C   0  0
   22.1067  -17.4697    0.0000 O   0  0
   23.5246  -18.2825    0.0000 C   0  0
   24.2336  -18.6889    0.0000 C   0  0
   24.9400  -18.2781    0.0000 N   0  0
   25.6490  -18.6845    0.0000 C   0  0
   24.9375  -17.4609    0.0000 C   0  0
  1  2  2  0
  2  3  1  0
  3  4  2  0
  4  5  1  0
  5  6  2  0
  6  1  1  0
  6  7  1  0
  7  8  1  0
  8  9  2  0
  9 13  1  0
 12 10  1  0
 10 11  2  0
 11  8  1  0
 12 13  2  0
 12 17  1  0
 13 14  1  0
 14 15  1  0
 15 16  1  0
 16 17  2  0
 18 19  2  0
 19 20  1  0
 20 21  2  0
 21 22  1  0
 22 23  2  0
 23 18  1  0
 14 18  1  0
 15 24  2  0
  3 25  1  0
 25 26  1  0
 22 27  1  0
 27 28  1  0
 28 29  1  0
 28 30  2  0
 29 31  2  0
 31 32  1  0
 32 33  1  0
 33 34  1  0
 33 35  1  0
M  END
> <chembl_id>
CHEMBL2437484

$$$$

  SciTegic01161211252D

 43 48  0  0  0  0            999 V2000
    3.8714   -5.3336    0.0000 C   0  0
    3.8454   -6.1605    0.0000 C   0  0
    4.5478   -6.5950    0.0000 C   0  0
    5.2764   -6.2031    0.0000 C   0  0
    5.2985   -5.3728    0.0000 C   0  0
    4.5957   -4.9423    0.0000 C   0  0
    5.9796   -6.6337    0.0000 C   0  0
    5.9983   -7.4592    0.0000 C   0  0
    6.7581   -6.3608    0.0000 N   0  0
    7.2585   -7.0166    0.0000 C   0  0
    6.7914   -7.6947    0.0000 N   0  0
    7.2919   -8.3486    0.0000 C   0  0
    8.0686   -8.0747    0.0000 C   0  0
    8.0478   -7.2514    0.0000 S   0  0
    5.2927   -7.8843    0.0000 C   0  0
    4.5706   -7.4826    0.0000 C   0  0
    3.8637   -7.9071    0.0000 C   0  0
    5.3085   -8.7059    0.0000 N   0  0
    4.6048   -9.1326    0.0000 C   0  0
    3.8740   -8.7338    0.0000 N   0  0
    4.6237   -9.9574    0.0000 N   0  0
    3.9164  -10.3828    0.0000 C   0  0
    3.1994   -9.9805    0.0000 C   0  0
    2.4926  -10.4051    0.0000 C   0  0
    2.5070  -11.2311    0.0000 C   0  0
    3.2341  -11.6305    0.0000 C   0  0
    3.9376  -11.2037    0.0000 C   0  0
    1.8006  -11.6573    0.0000 C   0  0
    1.0780  -11.2587    0.0000 C   0  0
    0.3715  -11.6848    0.0000 N   0  0
   -0.3510  -11.2862    0.0000 C   0  0
    0.3874  -12.5100    0.0000 C   0  0
    4.6181   -4.1176    0.0000 N   0  0
    3.9187   -3.6794    0.0000 C   0  0
    3.9482   -2.8550    0.0000 C   0  0
    3.1899   -4.0662    0.0000 O   0  0
    4.6795   -2.4710    0.0000 C   0  0
    4.7093   -1.6471    0.0000 C   0  0
    4.0095   -1.2085    0.0000 C   0  0
    3.2779   -1.5996    0.0000 C   0  0
    3.2516   -2.4221    0.0000 C   0  0
    2.5242   -2.8115    0.0000 F   0  0
    5.3778   -2.9106    0.0000 F   0  0
 13 14  1  0
 19 21  1  0
 14 10  1  0
 21 22  1  0
  1  2  2  0
 22 23  2  0
  3  4  2  0
 23 24  1  0
 15 16  2  0
 24 25  2  0
 25 26  1  0
 16 17  1  0
 26 27  2  0
 27 22  1  0
 17 20  2  0
  8 11  1  0
 19 18  2  0
 25 28  1  0
 18 15  1  0
 28 29  1  0
  8 15  1  0
 29 30  1  0
 19 20  1  0
 30 31  1  0
 10  9  2  0
 30 32  1  0
  6 33  1  0
  9  7  1  0
  4  7  1  0
 10 11  1  0
  4  5  1  0
  2  3  1  0
  5  6  2  0
  6  1  1  0
  7  8  2  0
 11 12  1  0
 12 13  2  0
 33 34  1  0
 34 35  1  0
 34 36  2  0
 35 37  2  0
 37 38  1  0
 38 39  2  0
 39 40  1  0
 40 41  2  0
 41 35  1  0
 41 42  1  0
 37 43  1  0
M  END
> <chembl_id>
CHEMBL1090357

$$$$

  SciTegic12171313052D

 31 34  0  0  0  0            999 V2000
   28.2288   -9.9383    0.0000 C   0  0
   28.2277  -10.7579    0.0000 C   0  0
   28.9357  -11.1668    0.0000 C   0  0
   29.6454  -10.7574    0.0000 C   0  0
   29.6426   -9.9347    0.0000 C   0  0
   28.9339   -9.5295    0.0000 C   0  0
   28.9315   -8.7123    0.0000 N   0  0
   29.6380   -8.3016    0.0000 C   0  0
   30.3484   -8.7125    0.0000 N   0  0
   30.3385   -7.0781    0.0000 C   0  0
   29.6354   -7.4905    0.0000 N   0  0
   31.0524   -7.4844    0.0000 C   0  0
   31.0532   -8.3041    0.0000 C   0  0
   31.7595   -8.7111    0.0000 N   0  0
   32.4697   -8.3028    0.0000 C   0  0
   32.4689   -7.4830    0.0000 C   0  0
   31.7580   -7.0716    0.0000 N   0  0
   31.7607   -9.5256    0.0000 C   0  0
   31.0512   -9.9332    0.0000 C   0  0
   31.0505  -10.7497    0.0000 C   0  0
   31.7586  -11.1594    0.0000 C   0  0
   32.4688  -10.7467    0.0000 C   0  0
   32.4660   -9.9316    0.0000 C   0  0
   33.1772   -8.7117    0.0000 O   0  0
   31.7593  -11.9766    0.0000 O   0  0
   32.4674  -12.3845    0.0000 C   0  0
   28.9355  -11.9840    0.0000 N   0  0
   28.2277  -12.3924    0.0000 C   0  0
   28.2275  -13.2096    0.0000 O   0  0
   27.5201  -11.9837    0.0000 C   0  0
   27.5203  -11.1665    0.0000 C   0  0
  1  2  2  0
  2  3  1  0
  3  4  2  0
  4  5  1  0
  5  6  2  0
  6  1  1  0
  6  7  1  0
  7  8  1  0
  8  9  2  0
  9 13  1  0
 12 10  1  0
 10 11  2  0
 11  8  1  0
 12 13  2  0
 12 17  1  0
 13 14  1  0
 14 15  1  0
 15 16  1  0
 16 17  2  0
 18 19  2  0
 19 20  1  0
 20 21  2  0
 21 22  1  0
 22 23  2  0
 23 18  1  0
 14 18  1  0
 15 24  2  0
 21 25  1  0
 25 26  1  0
  3 27  1  0
 27 28  1  0
 28 29  2  0
 28 30  1  0
 30 31  2  0
M  END
> <chembl_id>
CHEMBL2437477

$$$$

  SciTegic04091414152D

 41 46  0  0  0  0            999 V2000
   20.4318  -18.6290    0.0000 N   0  0
   20.4307  -19.4564    0.0000 C   0  0
   21.1454  -19.8693    0.0000 N   0  0
   21.1436  -18.2162    0.0000 C   0  0
   21.8590  -18.6254    0.0000 C   0  0
   21.8598  -19.4522    0.0000 C   0  0
   22.5751  -19.8632    0.0000 N   0  0
   23.2901  -19.4485    0.0000 C   0  0
   23.2854  -18.6184    0.0000 N   0  0
   22.5695  -18.2113    0.0000 C   0  0
   19.7158  -19.8684    0.0000 N   0  0
   24.0062  -19.8582    0.0000 O   0  0
   23.9975  -18.2014    0.0000 C   0  0
   19.7152  -20.6934    0.0000 C   0  0
   19.0003  -21.1038    0.0000 C   0  0
   18.9993  -21.9280    0.0000 C   0  0
   19.7140  -22.3419    0.0000 C   0  0
   20.4312  -21.9254    0.0000 C   0  0
   20.4287  -21.1025    0.0000 C   0  0
   19.7144  -23.1668    0.0000 N   0  0
   18.9997  -23.5804    0.0000 C   0  0
   18.9982  -24.4018    0.0000 C   0  0
   19.7111  -24.8178    0.0000 N   0  0
   20.4272  -24.4061    0.0000 C   0  0
   20.4304  -23.5785    0.0000 C   0  0
   19.7085  -25.6427    0.0000 C   0  0
   18.2866  -20.6898    0.0000 O   0  0
   17.5713  -21.1010    0.0000 C   0  0
   22.5768  -20.6882    0.0000 C   0  0  1  0  0  0
   21.9126  -21.1739    0.0000 C   0  0
   22.1692  -21.9580    0.0000 C   0  0
   22.9942  -21.9563    0.0000 N   0  0
   23.2474  -21.1711    0.0000 C   0  0
   23.4015  -22.6739    0.0000 C   0  0
   22.9841  -23.3855    0.0000 C   0  0
   24.2265  -22.6797    0.0000 O   0  0
   23.3916  -24.1028    0.0000 C   0  0
   24.7904  -18.4226    0.0000 C   0  0
   25.2485  -17.7363    0.0000 C   0  0
   24.7372  -17.0887    0.0000 C   0  0
   23.9635  -17.3748    0.0000 C   0  0
  1  2  2  0
  2  3  1  0
  3  6  2  0
  5  4  2  0
  4  1  1  0
  5  6  1  0
  6  7  1  0
  7  8  1  0
  8  9  1  0
  9 10  1  0
 10  5  1  0
  2 11  1  0
  8 12  2  0
  9 13  1  0
 11 14  1  0
 14 15  2  0
 15 16  1  0
 16 17  2  0
 17 18  1  0
 18 19  2  0
 19 14  1  0
 17 20  1  0
 20 21  1  0
 20 25  1  0
 21 22  1  0
 22 23  1  0
 23 24  1  0
 24 25  1  0
 23 26  1  0
 15 27  1  0
 27 28  1  0
 29  7  1  6
 29 30  1  0
 30 31  1  0
 31 32  1  0
 32 33  1  0
 33 29  1  0
 32 34  1  0
 34 35  1  0
 34 36  2  0
 35 37  2  0
 13 38  1  0
 38 39  1  0
 39 40  1  0
 40 41  1  0
 41 13  1  0
M  END
> <chembl_id>
CHEMBL3087199

$$$$

  SciTegic06051313552D

 28 32  0  0  0  0            999 V2000
   18.6083   -8.6341    0.0000 C   0  0
   18.6071   -9.4537    0.0000 C   0  0
   19.3152   -9.8626    0.0000 C   0  0
   20.0248   -9.4532    0.0000 C   0  0
   20.0220   -8.6305    0.0000 C   0  0
   19.3134   -8.2253    0.0000 C   0  0
   20.7027   -8.1784    0.0000 C   0  0
   21.4699   -8.4595    0.0000 C   0  0
   21.9745   -7.8167    0.0000 C   0  0
   21.5186   -7.1388    0.0000 N   0  0
   20.7330   -7.3618    0.0000 N   0  0
   21.9241   -6.4293    0.0000 C   0  0
   22.7890   -7.8469    0.0000 C   0  0
   24.0350   -7.1835    0.0000 C   0  0
   23.2204   -7.1567    0.0000 C   0  0
   22.7392   -6.4289    0.0000 C   0  0
   23.1447   -5.7202    0.0000 C   0  0
   22.7330   -5.0133    0.0000 C   0  0
   21.9116   -5.0195    0.0000 C   0  0
   21.5098   -5.7286    0.0000 C   0  0
   23.1710   -8.5678    0.0000 C   0  0
   24.4200   -7.9066    0.0000 C   0  0
   23.9860   -8.5987    0.0000 C   0  0
   24.3684   -9.3185    0.0000 C   0  0
   25.1846   -9.3474    0.0000 C   0  0
   25.6169   -8.6506    0.0000 C   0  0
   25.2320   -7.9336    0.0000 C   0  0
   17.8991   -9.8617    0.0000 C   0  0
  1  2  2  0
  2  3  1  0
  3  4  2  0
  4  5  1  0
  5  6  2  0
  6  1  1  0
  7  8  1  0
  8  9  1  0
  9 10  1  0
 10 11  1  0
 11  7  2  0
  5  7  1  0
 10 12  1  0
 13 21  2  0
 22 14  1  0
 14 15  2  0
 15 13  1  0
  9 13  1  0
 12 16  2  0
 16 17  1  0
 17 18  2  0
 18 19  1  0
 19 20  2  0
 20 12  1  0
 23 21  1  0
 22 23  1  0
 23 24  2  0
 24 25  1  0
 25 26  2  0
 26 27  1  0
 27 22  2  0
  2 28  1  0
M  END
> <chembl_id>
CHEMBL2325100

$$$$

  SciTegic01161211212D

 41 47  0  0  0  0            999 V2000
    6.1457   -4.0917    0.0000 N   0  0
    5.4306   -3.6792    0.0000 C   0  0
    4.7159   -4.0921    0.0000 O   0  0
    5.4305   -2.8537    0.0000 C   0  0
    6.1454   -2.4407    0.0000 C   0  0
    6.8590   -2.8544    0.0000 C   0  0
    7.5733   -2.4422    0.0000 C   0  0
    7.5735   -1.6157    0.0000 C   0  0
    6.8535   -1.2033    0.0000 C   0  0
    6.1421   -1.6180    0.0000 C   0  0
    5.4017   -5.2708    0.0000 C   0  0
    5.3757   -6.0982    0.0000 C   0  0
    6.0782   -6.5326    0.0000 C   0  0
    6.8072   -6.1408    0.0000 C   0  0
    6.8293   -5.3100    0.0000 C   0  0
    6.1261   -4.8794    0.0000 C   0  0
    7.5106   -6.5712    0.0000 C   0  0
    7.5292   -7.3973    0.0000 C   0  0
    8.2894   -6.2982    0.0000 N   0  0
    8.7901   -6.9545    0.0000 C   0  0
    8.3228   -7.6329    0.0000 N   0  0
    8.8235   -8.2870    0.0000 C   0  0
    9.6004   -8.0129    0.0000 C   0  0
    9.5797   -7.1894    0.0000 S   0  0
    6.8234   -7.8224    0.0000 C   0  0
    6.1011   -7.4207    0.0000 C   0  0
    5.3940   -7.8453    0.0000 C   0  0
    6.8393   -8.6444    0.0000 N   0  0
    6.1352   -9.0714    0.0000 C   0  0
    5.4043   -8.6723    0.0000 N   0  0
    6.1542   -9.8963    0.0000 N   0  0
    5.4467  -10.3221    0.0000 C   0  0
    4.7293   -9.9195    0.0000 C   0  0
    4.0224  -10.3444    0.0000 C   0  0
    5.4679  -11.1432    0.0000 C   0  0
    4.7664  -11.5712    0.0000 C   0  0
    4.0411  -11.1696    0.0000 C   0  0
    3.3345  -11.5946    0.0000 C   0  0
    3.3471  -12.4230    0.0000 N   0  0
    4.0725  -12.8246    0.0000 C   0  0
    4.7852  -12.3978    0.0000 C   0  0
  9 10  2  0
 10  5  1  0
  1  2  1  0
  2  3  2  0
  2  4  1  0
  4  5  1  0
  5  6  2  0
  6  7  1  0
  7  8  2  0
  8  9  1  0
 29 30  1  0
 20 19  2  0
 19 17  1  0
 14 17  1  0
 20 21  1  0
 14 15  1  0
 12 13  1  0
 29 31  1  0
 15 16  2  0
 31 32  1  0
 16 11  1  0
 32 33  2  0
 17 18  2  0
 33 34  1  0
 34 37  2  0
 21 22  1  0
 36 35  2  0
 35 32  1  0
 22 23  2  0
 23 24  1  0
 24 20  1  0
 11 12  2  0
 13 14  2  0
 25 26  2  0
 36 37  1  0
 26 27  1  0
 27 30  2  0
 18 21  1  0
 29 28  2  0
 28 25  1  0
 18 25  1  0
 36 41  1  0
 37 38  1  0
 38 39  1  0
 39 40  1  0
 40 41  1  0
 16  1  1  0
M  END
> <chembl_id>
CHEMBL1090364

$$$$

  SciTegic12171313052D

 31 34  0  0  0  0            999 V2000
   27.1392   -3.4379    0.0000 C   0  0
   27.1381   -4.2575    0.0000 C   0  0
   27.8461   -4.6664    0.0000 C   0  0
   28.5558   -4.2570    0.0000 C   0  0
   28.5530   -3.4343    0.0000 C   0  0
   27.8443   -3.0291    0.0000 C   0  0
   27.8419   -2.2119    0.0000 N   0  0
   28.5484   -1.8012    0.0000 C   0  0
   29.2588   -2.2121    0.0000 N   0  0
   29.2489   -0.5777    0.0000 C   0  0
   28.5458   -0.9901    0.0000 N   0  0
   29.9628   -0.9840    0.0000 C   0  0
   29.9636   -1.8037    0.0000 C   0  0
   30.6700   -2.2107    0.0000 N   0  0
   31.3801   -1.8024    0.0000 C   0  0
   31.3793   -0.9827    0.0000 C   0  0
   30.6684   -0.5712    0.0000 N   0  0
   30.6711   -3.0252    0.0000 C   0  0
   29.9616   -3.4329    0.0000 C   0  0
   29.9609   -4.2493    0.0000 C   0  0
   30.6690   -4.6590    0.0000 C   0  0
   31.3792   -4.2463    0.0000 C   0  0
   31.3764   -3.4312    0.0000 C   0  0
   32.0876   -2.2113    0.0000 O   0  0
   27.8459   -5.4836    0.0000 O   0  0
   27.1381   -5.8921    0.0000 C   0  0
   30.6697   -5.4762    0.0000 N   0  0
   31.3778   -5.8842    0.0000 C   0  0
   31.3785   -6.7013    0.0000 O   0  0
   32.0851   -5.4749    0.0000 C   0  0
   32.7932   -5.8829    0.0000 C   0  0
  1  2  2  0
  2  3  1  0
  3  4  2  0
  4  5  1  0
  5  6  2  0
  6  1  1  0
  6  7  1  0
  7  8  1  0
  8  9  2  0
  9 13  1  0
 12 10  1  0
 10 11  2  0
 11  8  1  0
 12 13  2  0
 12 17  1  0
 13 14  1  0
 14 15  1  0
 15 16  1  0
 16 17  2  0
 18 19  2  0
 19 20  1  0
 20 21  2  0
 21 22  1  0
 22 23  2  0
 23 18  1  0
 14 18  1  0
 15 24  2  0
  3 25  1  0
 25 26  1  0
 21 27  1  0
 27 28  1  0
 28 29  2  0
 28 30  1  0
 30 31  2  0
M  END
> <chembl_id>
CHEMBL2437478

$$$$

  SciTegic01061414252D

 35 38  0  0  0  0            999 V2000
    8.5415   -5.3818    0.0000 C   0  0
    8.5415   -6.1990    0.0000 C   0  0
    9.3586   -6.1990    0.0000 O   0  0
    9.3586   -5.3818    0.0000 O   0  0
   14.3331   -6.5500    0.0000 N   0  0
   15.0391   -6.1311    0.0000 C   0  0
   15.0293   -5.3103    0.0000 N   0  0
   14.3135   -4.9083    0.0000 C   0  0
   13.6076   -5.3273    0.0000 C   0  0
   12.8918   -4.9253    0.0000 C   0  0
   12.1859   -5.3442    0.0000 C   0  0
   12.1957   -6.1651    0.0000 C   0  0
   12.9114   -6.5670    0.0000 C   0  0
   13.6174   -6.1481    0.0000 C   0  0
   11.4897   -6.5840    0.0000 O   0  0
   11.4701   -4.9423    0.0000 N   0  0
   10.7642   -5.3612    0.0000 C   0  0
   10.7740   -6.1821    0.0000 C   0  0
   14.3037   -4.0875    0.0000 N   0  0
   15.0097   -3.6686    0.0000 C   0  0
   14.9999   -2.8478    0.0000 C   0  0
   15.7058   -2.4289    0.0000 C   0  0
   16.4216   -2.8308    0.0000 C   0  0
   16.4314   -3.6516    0.0000 C   0  0
   15.7254   -4.0705    0.0000 C   0  0
   10.0516   -4.9611    0.0000 C   0  0
   10.0712   -6.5991    0.0000 C   0  0
   11.4603   -4.1252    0.0000 C   0  0
   12.1631   -3.7082    0.0000 O   0  0
   10.7478   -3.7251    0.0000 C   0  0
   10.0450   -4.1421    0.0000 C   0  0
   17.1439   -4.0517    0.0000 C   0  0
   17.1537   -4.8689    0.0000 F   0  0
   17.8467   -3.6347    0.0000 F   0  0
   17.8461   -4.4574    0.0000 F   0  0
  1  2  1  0
  2  3  1  0
  4  1  1  0
  5  6  1  0
  6  7  2  0
  7  8  1  0
  8  9  2  0
  9 10  1  0
 10 11  2  0
 11 12  1  0
 12 13  2  0
 13 14  1  0
  5 14  2  0
  9 14  1  0
 16 17  1  0
 15 18  1  0
 11 16  1  0
 12 15  1  0
  8 19  1  0
 20 21  1  0
 21 22  2  0
 22 23  1  0
 23 24  2  0
 24 25  1  0
 20 25  2  0
 19 20  1  0
 17 26  1  0
 26  4  1  0
 18 27  1  0
 27  3  1  0
 16 28  1  0
 28 29  2  0
 28 30  1  0
 30 31  2  0
 24 32  1  0
 32 33  1  0
 32 34  1  0
 32 35  1  0
M  END
> <chembl_id>
CHEMBL2441569

$$$$

  SciTegic04091414352D

 36 40  0  0  0  0            999 V2000
   11.5271   -6.3494    0.0000 N   0  0
   11.5345   -5.5317    0.0000 C   0  0
   12.2463   -5.1293    0.0000 C   0  0
   12.9507   -5.5445    0.0000 C   0  0
   12.9433   -6.3622    0.0000 C   0  0
   12.2315   -6.7646    0.0000 C   0  0
   10.8154   -6.7518    0.0000 C   0  0
   10.8080   -7.5694    0.0000 O   0  0
   10.1110   -6.3365    0.0000 N   0  0
   13.7546   -5.6938    0.0000 F   0  0
   13.2373   -4.7787    0.0000 F   0  0
    7.2638   -7.9462    0.0000 N   0  0
    6.5594   -7.5310    0.0000 C   0  0
    6.5668   -6.7133    0.0000 N   0  0
    7.2786   -6.3109    0.0000 C   0  0
    7.9830   -6.7262    0.0000 C   0  0
    8.6948   -6.3237    0.0000 C   0  0
    9.3992   -6.7390    0.0000 C   0  0
    9.3918   -7.5566    0.0000 C   0  0
    8.6800   -7.9590    0.0000 C   0  0
    7.9756   -7.5438    0.0000 C   0  0
   10.0962   -7.9718    0.0000 O   0  0
    9.6686  -10.0440    0.0000 O   0  0
    9.4229   -9.2641    0.0000 C   0  0
   10.0888   -8.7894    0.0000 C   0  0  2  0  0  0
   10.7459   -9.2760    0.0000 C   0  0
   10.4862  -10.0514    0.0000 C   0  0
    7.2860   -5.4933    0.0000 N   0  0
    6.5816   -5.0781    0.0000 C   0  0
    5.8698   -5.4805    0.0000 C   0  0
    5.1654   -5.0653    0.0000 C   0  0
    5.1728   -4.2476    0.0000 C   0  0
    5.8846   -3.8452    0.0000 C   0  0
    6.5890   -4.2604    0.0000 C   0  0
    4.4684   -3.8324    0.0000 F   0  0
    4.4536   -5.4677    0.0000 Cl  0  0
  1  2  1  0
  2  3  1  0
  3  4  1  0
  4  5  1  0
  5  6  1  0
  1  6  1  0
  7  8  2  0
  7  9  1  0
  1  7  1  0
  4 10  1  0
  4 11  1  0
 12 13  1  0
 13 14  2  0
 14 15  1  0
 15 16  2  0
 16 17  1  0
 17 18  2  0
 18 19  1  0
 19 20  2  0
 20 21  1  0
 12 21  2  0
 16 21  1  0
 23 24  1  0
 24 25  1  0
 25 26  1  0
 26 27  1  0
 23 27  1  0
 25 22  1  1
 19 22  1  0
 29 30  1  0
 30 31  2  0
 31 32  1  0
 32 33  2  0
 33 34  1  0
 29 34  2  0
 32 35  1  0
 31 36  1  0
 28 29  1  0
 15 28  1  0
  9 18  1  0
M  END
> <chembl_id>
CHEMBL3092298

$$$$

  SciTegic12091611192D

 28 30  0  0  0  0            999 V2000
  -12.7129    0.6370    0.0000 C   0  0
  -11.4219    1.4024    0.0000 C   0  0
  -10.1131    0.6680    0.0000 C   0  0
  -13.7594    1.2242    0.0000 O   0  0
  -12.6986   -0.5629    0.0000 N   0  0
   -8.8221    1.4334    0.0000 O   0  0
   -7.5133    0.6990    0.0000 C   0  0
   -6.2219    1.4621    0.0000 N   0  0
   -4.9153    0.7255    0.0000 C   0  0
   -4.9001   -0.7745    0.0000 C   0  0
   -6.1914   -1.5377    0.0000 C   0  0
   -7.4980   -0.8010    0.0000 N   0  0
   -3.6217    1.4865    0.0000 N   0  0
   -1.0028   -1.5132    0.0000 C   0  0
    0.2917   -0.7475    0.0000 C   0  0
    0.2917    0.7475    0.0000 C   0  0
   -1.0028    1.5132    0.0000 C   0  0
   -2.3155    0.7475    0.0000 C   0  0
   -2.3155   -0.7475    0.0000 N   0  0
    2.5889    0.0182    0.0000 C   0  0
    1.7138   -1.2033    0.0000 N   0  0
    1.7138    1.2033    0.0000 N   0  0
    3.7889    0.0269    0.0000 C   0  0
    2.1812    2.6271    0.0000 C   0  0
    3.3556    2.8737    0.0000 C   0  0
    1.3808    3.5211    0.0000 C   0  0
  -10.3900    2.0149    0.0000 C   0  0
  -11.4362    2.6023    0.0000 C   0  0
  1  2  1  0
  2  3  1  0
  1  4  2  0
  1  5  1  0
  7  8  1  0
  8  9  2  0
  9 10  1  0
 10 11  2  0
 11 12  1  0
  7 12  2  0
 14 15  1  0
 15 16  2  0
 16 17  1  0
 17 18  2  0
 18 19  1  0
 14 19  2  0
 20 21  2  0
 20 22  1  0
 15 21  1  0
 16 22  1  0
 20 23  1  0
 24 25  1  0
 24 26  1  0
 22 24  1  0
 13 18  1  0
  9 13  1  0
  6  7  1  0
  3  6  1  0
  2 27  1  0
  2 28  1  0
M  END
> <chembl_id>
CHEMBL3735892

$$$$

  SciTegic09261414462D

 23 25  0  0  0  0            999 V2000
   30.5453  -23.0863    0.0000 N   0  0
   31.2550  -22.6768    0.0000 C   0  0
   31.2522  -21.8542    0.0000 N   0  0
   30.5436  -21.4489    0.0000 C   0  0
   29.8373  -22.6773    0.0000 C   0  0
   29.8385  -21.8608    0.0000 C   0  0
   29.0623  -21.6073    0.0000 C   0  0
   28.5813  -22.2672    0.0000 C   0  0
   29.0604  -22.9284    0.0000 S   0  0
   30.5398  -20.6317    0.0000 N   0  0
   31.2456  -20.2199    0.0000 C   0  0
   31.9530  -20.6300    0.0000 C   0  0
   32.6584  -20.2188    0.0000 C   0  0
   32.6550  -19.4008    0.0000 C   0  0
   31.9405  -18.9956    0.0000 C   0  0
   31.2381  -19.4091    0.0000 C   0  0
   27.7641  -22.2660    0.0000 N   0  0
   27.3566  -21.5577    0.0000 C   0  0
   26.5394  -21.5565    0.0000 C   0  0
   27.7662  -20.8506    0.0000 O   0  0
   33.3603  -18.9880    0.0000 F   0  0
   33.3677  -20.6245    0.0000 Cl  0  0
   26.1318  -20.8482    0.0000 C   0  0
  5  1  1  0
  1  2  2  0
  2  3  1  0
  3  4  2  0
  4  6  1  0
  5  6  2  0
  6  7  1  0
  7  8  2  0
  8  9  1  0
  9  5  1  0
  4 10  1  0
 10 11  1  0
 11 12  2  0
 12 13  1  0
 13 14  2  0
 14 15  1  0
 15 16  2  0
 16 11  1  0
  8 17  1  0
 17 18  1  0
 18 19  1  0
 18 20  2  0
 14 21  1  0
 13 22  1  0
 19 23  2  0
M  END
> <chembl_id>
CHEMBL3233767

$$$$

  SciTegic12131613492D

 30 34  0  0  0  0            999 V2000
   -2.9773  -10.4252    0.0000 F   0  0
   -3.7880   -9.5404    0.0000 C   0  0
   -4.9595   -9.8004    0.0000 F   0  0
    0.8955    2.0810    0.0000 C   0  0
    1.7138    1.2033    0.0000 C   0  0
    2.8908    1.4370    0.0000 C   0  0
   -1.0028    1.5132    0.0000 N   0  0
   -2.3155    0.7475    0.0000 C   0  0
   -2.3155   -0.7475    0.0000 N   0  0
   -1.0028   -1.5132    0.0000 C   0  0
    0.2917    0.7475    0.0000 C   0  0
    0.2917   -0.7475    0.0000 C   0  0
    1.7138   -1.2033    0.0000 C   0  0
    2.5889    0.0182    0.0000 O   0  0
   -3.6168    1.4950    0.0000 C   0  0
   -4.9669    0.8708    0.0000 C   0  0
   -5.9732    1.9832    0.0000 N   0  0
   -5.2262    3.2840    0.0000 N   0  0
   -3.7582    2.9755    0.0000 C   0  0
   -0.9971   -3.0138    0.0000 N   0  0
   -2.2935   -3.7700    0.0000 C   0  0
   -4.6304   -4.2656    0.0000 N   0  0
   -3.6203   -3.1531    0.0000 N   0  0
   -3.8857   -5.5600    0.0000 C   0  0
   -2.4241   -5.2456    0.0000 C   0  0
   -1.4032   -6.3500    0.0000 C   0  0
   -1.8757   -7.7944    0.0000 C   0  0
   -3.3373   -8.1089    0.0000 C   0  0
   -4.3620   -6.9866    0.0000 C   0  0
   -4.1487  -10.6849    0.0000 F   0  0
  2  1  1  0
  3  2  1  0
  5  4  1  0
  6  5  1  0
 11  7  1  0
  7  8  2  0
  8  9  1  0
  9 10  2  0
 10 12  1  0
 11 12  2  0
 12 13  1  0
 13 14  1  0
 14  5  1  0
  5 11  1  0
  8 15  1  0
 15 16  2  0
 16 17  1  0
 17 18  1  0
 18 19  2  0
 19 15  1  0
 10 20  1  0
 20 21  1  0
 21 25  1  0
 24 22  1  0
 22 23  1  0
 23 21  2  0
 24 25  2  0
 25 26  1  0
 26 27  2  0
 27 28  1  0
 28 29  2  0
 29 24  1  0
 28  2  1  0
  2 30  1  0
M  END
> <chembl_id>
CHEMBL3758871

$$$$

  SciTegic12091611192D

 29 32  0  0  0  0            999 V2000
   -7.5133    0.6990    0.0000 C   0  0
   -6.2219    1.4621    0.0000 N   0  0
   -4.9153    0.7255    0.0000 C   0  0
   -4.9001   -0.7745    0.0000 C   0  0
   -6.1914   -1.5377    0.0000 C   0  0
   -7.4980   -0.8010    0.0000 N   0  0
   -3.6217    1.4865    0.0000 N   0  0
   -1.0028   -1.5132    0.0000 C   0  0
    0.2917   -0.7475    0.0000 C   0  0
    0.2917    0.7475    0.0000 C   0  0
   -1.0028    1.5132    0.0000 C   0  0
   -2.3155    0.7475    0.0000 C   0  0
   -2.3155   -0.7475    0.0000 N   0  0
    2.5889    0.0182    0.0000 C   0  0
    1.7138   -1.2033    0.0000 N   0  0
    1.7138    1.2033    0.0000 N   0  0
    3.7889    0.0269    0.0000 C   0  0
    2.1812    2.6271    0.0000 C   0  0
    3.3556    2.8737    0.0000 C   0  0
    1.3808    3.5211    0.0000 C   0  0
   -8.8205    1.4361    0.0000 N   0  0
   -8.9758    2.9152    0.0000 C   0  0
  -10.4466    3.2098    0.0000 C   0  0
  -11.1813    1.9020    0.0000 C   0  0
  -10.1646    0.7992    0.0000 C   0  0
  -11.8827    2.8757    0.0000 C   0  0
  -11.7483    0.5269    0.0000 C   0  0
  -12.9402    0.3875    0.0000 N   0  0
  -11.0320   -0.4359    0.0000 O   0  0
  1  2  1  0
  2  3  2  0
  3  4  1  0
  4  5  2  0
  5  6  1  0
  1  6  2  0
  8  9  1  0
  9 10  2  0
 10 11  1  0
 11 12  2  0
 12 13  1  0
  8 13  2  0
 14 15  2  0
 14 16  1  0
  9 15  1  0
 10 16  1  0
 14 17  1  0
 18 19  1  0
 18 20  1  0
 16 18  1  0
  7 12  1  0
  3  7  1  0
 21 22  1  0
 22 23  1  0
 23 24  1  0
 24 25  1  0
 25 21  1  0
  1 21  1  0
 24 26  1  0
 24 27  1  0
 27 28  1  0
 27 29  2  0
M  END
> <chembl_id>
CHEMBL3735638

$$$$

  SciTegic10311316282D

 35 39  0  0  0  0            999 V2000
   37.6914   -3.5197    0.0000 S   0  0
   37.8670   -4.3257    0.0000 O   0  0
   38.4773   -3.7706    0.0000 O   0  0
   32.3113   -6.6590    0.0000 N   0  0
   32.3112   -7.4864    0.0000 C   0  0
   33.0265   -7.8984    0.0000 N   0  0
   33.0226   -6.2454    0.0000 C   0  0
   33.7385   -6.6536    0.0000 C   0  0
   33.7398   -7.4800    0.0000 C   0  0
   34.5263   -7.7342    0.0000 N   0  0
   35.0110   -7.0648    0.0000 C   0  0
   34.5242   -6.3970    0.0000 C   0  0
   34.7865   -8.5205    0.0000 C   0  0
   34.3027   -9.1887    0.0000 C   0  0
   34.7887   -9.8554    0.0000 C   0  0
   35.5729   -9.5992    0.0000 C   0  0
   35.5715   -8.7742    0.0000 C   0  0
   33.0191   -5.4204    0.0000 N   0  0
   34.7780   -5.6120    0.0000 C   0  0
   35.5847   -5.4392    0.0000 C   0  0
   34.2250   -4.9997    0.0000 O   0  0
   36.1317   -6.0528    0.0000 C   0  0
   36.9378   -5.8805    0.0000 C   0  0
   37.1922   -5.0948    0.0000 C   0  0
   36.6344   -4.4812    0.0000 C   0  0
   35.8304   -4.6566    0.0000 C   0  0
   36.8853   -3.6953    0.0000 N   0  0
   37.9424   -2.7337    0.0000 C   0  0
   38.7478   -2.5630    0.0000 C   0  0
   38.9989   -1.7780    0.0000 C   0  0
   38.4435   -1.1667    0.0000 C   0  0
   37.6338   -1.3459    0.0000 C   0  0
   37.3865   -2.1307    0.0000 C   0  0
   39.3011   -3.1750    0.0000 F   0  0
   36.5813   -2.3105    0.0000 F   0  0
  2  1  2  0
  1  3  2  0
  4  5  2  0
  5  6  1  0
  6  9  2  0
  8  7  2  0
  7  4  1  0
  8  9  1  0
  9 10  1  0
 10 11  1  0
 11 12  2  0
 12  8  1  0
 13 14  1  0
 14 15  1  0
 15 16  1  0
 16 17  1  0
 17 13  1  0
 10 13  1  0
  7 18  1  0
 12 19  1  0
 19 20  1  0
 19 21  2  0
 20 22  2  0
 22 23  1  0
 23 24  2  0
 24 25  1  0
 25 26  2  0
 26 20  1  0
 25 27  1  0
 27  1  1  0
  1 28  1  0
 28 29  2  0
 29 30  1  0
 30 31  2  0
 31 32  1  0
 32 33  2  0
 33 28  1  0
 29 34  1  0
 33 35  1  0
M  END
> <chembl_id>
CHEMBL2386993

$$$$

  SciTegic05061409512D

 30 33  0  0  0  0            999 V2000
   14.0122  -12.0129    0.0000 N   0  0
   13.3026  -11.6035    0.0000 C   0  0
   13.3054  -10.7808    0.0000 C   0  0
   14.0140  -10.3755    0.0000 C   0  0
   14.7203  -11.6039    0.0000 C   0  0
   14.7190  -10.7829    0.0000 C   0  0
   15.4995  -10.5279    0.0000 N   0  0
   15.9832  -11.1915    0.0000 C   0  0
   15.5015  -11.8564    0.0000 N   0  0
   16.8004  -11.1903    0.0000 C   0  0
   17.2052  -11.8998    0.0000 C   0  0
   18.0217  -11.8990    0.0000 C   0  0
   18.4301  -11.1901    0.0000 C   0  0
   18.0160  -10.4807    0.0000 C   0  0
   17.2010  -10.4850    0.0000 C   0  0
   19.2472  -11.1879    0.0000 O   0  0
   19.6578  -11.8944    0.0000 C   0  0
   12.6027  -10.3678    0.0000 C   0  0
   12.5216   -9.5544    0.0000 C   0  0
   11.7220   -9.3811    0.0000 S   0  0
   11.3113  -10.0889    0.0000 C   0  0
   11.8584  -10.6972    0.0000 C   0  0
   10.5021  -10.1771    0.0000 C   0  0
   10.0193   -9.5177    0.0000 O   0  0
   10.1725  -10.9248    0.0000 N   0  0
    9.3601  -11.0133    0.0000 C   0  0
    9.0305  -11.7611    0.0000 C   0  0
    8.2182  -11.8495    0.0000 C   0  0
    7.8886  -12.5973    0.0000 C   0  0
    7.7354  -11.1902    0.0000 C   0  0
  5  1  1  0
  1  2  2  0
  2  3  1  0
  3  4  2  0
  4  6  1  0
  5  6  2  0
  6  7  1  0
  7  8  2  0
  8  9  1  0
  9  5  1  0
  8 10  1  0
 10 11  2  0
 11 12  1  0
 12 13  2  0
 13 14  1  0
 14 15  2  0
 15 10  1  0
 13 16  1  0
 16 17  1  0
 19 20  1  0
 18 19  2  0
 20 21  1  0
 21 22  2  0
 22 18  1  0
  3 18  1  0
 21 23  1  0
 23 24  2  0
 23 25  1  0
 25 26  1  0
 26 27  1  0
 27 28  1  0
 28 29  1  0
 28 30  1  0
M  END
> <chembl_id>
CHEMBL3125728

$$$$

  SciTegic09261414462D

 33 37  0  0  0  0            999 V2000
   25.1720   -6.6283    0.0000 C   0  0
   25.5764   -5.9184    0.0000 C   0  0
   25.1662   -5.2171    0.0000 C   0  0
   24.3498   -5.2195    0.0000 O   0  0
   23.9453   -5.9294    0.0000 C   0  0
   24.3572   -6.6369    0.0000 C   0  0
   31.3873  -10.5766    0.0000 N   0  0
   32.0970  -10.1672    0.0000 C   0  0
   32.0941   -9.3445    0.0000 N   0  0
   31.3855   -8.9393    0.0000 C   0  0
   30.6793  -10.1677    0.0000 C   0  0
   30.6805   -9.3511    0.0000 C   0  0
   29.9043   -9.0976    0.0000 C   0  0
   29.4233   -9.7575    0.0000 C   0  0
   29.9023  -10.4188    0.0000 S   0  0
   31.3817   -8.1221    0.0000 N   0  0
   32.0876   -7.7102    0.0000 C   0  0
   32.7950   -8.1204    0.0000 C   0  0
   33.5003   -7.7092    0.0000 C   0  0
   33.4970   -6.8911    0.0000 C   0  0
   32.7824   -6.4860    0.0000 C   0  0
   32.0800   -6.8995    0.0000 C   0  0
   28.6061   -9.7563    0.0000 N   0  0
   28.1985   -9.0480    0.0000 C   0  0
   27.3813   -9.0469    0.0000 C   0  0
   28.6082   -8.3409    0.0000 O   0  0
   34.2023   -6.4784    0.0000 F   0  0
   34.2097   -8.1149    0.0000 Cl  0  0
   26.9738   -8.3386    0.0000 C   0  0
   26.1566   -8.3374    0.0000 C   0  0
   25.7490   -7.6291    0.0000 N   0  0
   25.9647   -6.8431    0.0000 C   0  0
   24.9630   -7.4195    0.0000 C   0  0
  1  2  1  0
  1  6  1  0
  2  3  1  0
  3  4  1  0
  4  5  1  0
  5  6  1  0
 11  7  1  0
  7  8  2  0
  8  9  1  0
  9 10  2  0
 10 12  1  0
 11 12  2  0
 12 13  1  0
 13 14  2  0
 14 15  1  0
 15 11  1  0
 10 16  1  0
 16 17  1  0
 17 18  2  0
 18 19  1  0
 19 20  2  0
 20 21  1  0
 21 22  2  0
 22 17  1  0
 14 23  1  0
 23 24  1  0
 24 25  1  0
 24 26  2  0
 20 27  1  0
 19 28  1  0
 25 29  2  0
 29 30  1  0
 30 31  1  0
 31 32  1  0
 32  1  1  0
  1 33  1  0
 33 31  1  0
M  END
> <chembl_id>
CHEMBL3233794

$$$$

  SciTegic09261414462D

 44 48  0  0  0  0            999 V2000
   21.6046  -21.0364    0.0000 C   0  0
   21.6035  -21.8560    0.0000 C   0  0
   22.3115  -22.2649    0.0000 C   0  0
   23.0212  -21.8555    0.0000 C   0  0
   23.0184  -21.0328    0.0000 C   0  0
   22.3097  -20.6276    0.0000 C   0  0
   20.8989  -20.6282    0.0000 N   0  0
   20.9000  -19.8099    0.0000 C   0  0
   20.1931  -19.4015    0.0000 C   0  0
   19.4845  -19.8104    0.0000 N   0  0
   19.4873  -20.6318    0.0000 C   0  0
   20.1948  -21.0364    0.0000 C   0  0
   23.7295  -22.2630    0.0000 N   0  0
   24.4366  -21.8533    0.0000 C   0  0
   25.1416  -22.2612    0.0000 N   0  0
   25.8482  -21.8522    0.0000 C   0  0
   25.8474  -21.0341    0.0000 C   0  0
   25.1340  -20.6268    0.0000 C   0  0
   24.4304  -21.0382    0.0000 N   0  0
   25.1299  -19.8096    0.0000 O   0  0
   25.8355  -19.3974    0.0000 C   0  0
   26.5422  -19.8027    0.0000 C   0  0
   27.2473  -19.3912    0.0000 C   0  0
   27.2436  -18.5732    0.0000 C   0  0
   26.5289  -18.1684    0.0000 C   0  0
   25.8266  -18.5822    0.0000 C   0  0
   27.9569  -19.7965    0.0000 N   0  0
   28.6627  -19.3847    0.0000 C   0  0
   29.3723  -19.7900    0.0000 C   0  0
   28.6590  -18.5675    0.0000 O   0  0
   26.5539  -20.6235    0.0000 Cl  0  0
   22.3113  -23.0821    0.0000 O   0  0
   21.6035  -23.4906    0.0000 C   0  0
   18.7761  -19.4029    0.0000 C   0  0
   30.0781  -19.3782    0.0000 C   0  0
   30.7877  -19.7835    0.0000 N   0  0
   30.7865  -20.5998    0.0000 C   0  0
   31.4921  -21.0050    0.0000 C   0  0
   32.2003  -20.5967    0.0000 N   0  0
   32.1985  -19.7785    0.0000 C   0  0
   31.4884  -19.3688    0.0000 C   0  0
   32.9083  -21.0047    0.0000 C   0  0
   33.6157  -20.5955    0.0000 C   0  0
   34.3238  -21.0035    0.0000 O   0  0
  1  2  2  0
  2  3  1  0
  3  4  2  0
  4  5  1  0
  5  6  2  0
  6  1  1  0
  7  8  1  0
  8  9  1  0
  9 10  1  0
 10 11  1  0
 11 12  1  0
 12  7  1  0
  1  7  1  0
  4 13  1  0
 13 14  1  0
 14 15  2  0
 15 16  1  0
 16 17  2  0
 17 18  1  0
 18 19  2  0
 19 14  1  0
 18 20  1  0
 20 21  1  0
 21 22  2  0
 22 23  1  0
 23 24  2  0
 24 25  1  0
 25 26  2  0
 26 21  1  0
 23 27  1  0
 27 28  1  0
 28 29  1  0
 28 30  2  0
 17 31  1  0
  3 32  1  0
 32 33  1  0
 10 34  1  0
 29 35  1  0
 35 36  1  0
 36 37  1  0
 36 41  1  0
 37 38  1  0
 38 39  1  0
 39 40  1  0
 40 41  1  0
 39 42  1  0
 42 43  1  0
 43 44  1  0
M  END
> <chembl_id>
CHEMBL3237936

$$$$

  SciTegic12211612232D

 26 30  0  0  0  0            999 V2000
    1.7138   -1.2033    0.0000 N   0  0
    2.5889    0.0182    0.0000 N   0  0
    1.7138    1.2033    0.0000 N   0  0
    0.2917    0.7475    0.0000 C   0  0
    0.2917   -0.7475    0.0000 C   0  0
   -1.0028    1.5132    0.0000 C   0  0
   -2.3155    0.7475    0.0000 C   0  0
   -2.3155   -0.7475    0.0000 C   0  0
   -1.0028   -1.5132    0.0000 C   0  0
    2.1852   -2.6281    0.0000 C   0  0
    1.2781   -3.8165    0.0000 C   0  0
    1.8565   -5.2005    0.0000 C   0  0
    3.3443   -5.3916    0.0000 C   0  0
    4.2537   -4.1987    0.0000 C   0  0
    3.6753   -2.8147    0.0000 C   0  0
    3.1413   -8.0438    0.0000 S   0  0
    3.9230   -6.7763    0.0000 C   0  0
    5.3512   -7.0908    0.0000 N   0  0
    5.4957   -8.5772    0.0000 C   0  0
    4.1229   -9.1692    0.0000 C   0  0
    6.7115   -9.4626    0.0000 C   0  0
    6.5281  -10.9712    0.0000 C   0  0
    5.1553  -11.5632    0.0000 C   0  0
    3.9324  -10.6610    0.0000 C   0  0
    4.9878  -13.0547    0.0000 O   0  0
    3.8885  -13.5357    0.0000 C   0  0
  1  2  1  0
  2  3  2  0
  3  4  1  0
  4  5  1  0
  1  5  1  0
  6  7  1  0
  7  8  2  0
  8  9  1  0
  5  9  2  0
  4  6  2  0
 10 11  1  0
 11 12  2  0
 12 13  1  0
 13 14  2  0
 14 15  1  0
 10 15  2  0
 16 17  1  0
 17 18  2  0
 18 19  1  0
 19 20  1  0
 16 20  1  0
 21 22  1  0
 22 23  2  0
 23 24  1  0
 20 24  2  0
 19 21  2  0
 25 26  1  0
 23 25  1  0
 13 17  1  0
  1 10  1  0
M  END
> <chembl_id>
CHEMBL3818369

$$$$

  SciTegic12161611592D

 24 27  0  0  0  0            999 V2000
   -2.3155    0.7475    0.0000 C   0  0
   -2.3155   -0.7475    0.0000 C   0  0
   -1.0028   -1.5132    0.0000 C   0  0
    0.2917   -0.7475    0.0000 C   0  0
    0.2917    0.7475    0.0000 C   0  0
   -1.0028    1.5132    0.0000 C   0  0
    1.7138    1.2033    0.0000 N   0  0
    2.5889    0.0182    0.0000 N   0  0
    1.7138   -1.2033    0.0000 C   0  0
    2.0825    2.3453    0.0000 C   0  0
   -3.6187   -1.4919    0.0000 C   0  0
   -3.6267   -2.9927    0.0000 C   0  0
   -4.8376   -3.8453    0.0000 C   0  0
   -4.3738   -5.2665    0.0000 C   0  0
   -5.3668   -6.3961    0.0000 C   0  0
   -6.8523   -6.0754    0.0000 C   0  0
   -7.3161   -4.6542    0.0000 C   0  0
   -6.3058   -3.5189    0.0000 C   0  0
   -8.7860   -4.3508    0.0000 C   0  0
   -9.2593   -2.9266    0.0000 N   0  0
  -10.4345   -2.6842    0.0000 C   0  0
   -9.5833   -5.2477    0.0000 O   0  0
   -2.8805   -5.2586    0.0000 N   0  0
   -2.4162   -3.8605    0.0000 N   0  0
  1  2  2  0
  2  3  1  0
  3  4  2  0
  5  4  1  0
  5  6  2  0
  6  1  1  0
  7  5  1  0
  8  7  1  0
  9  8  2  0
  4  9  1  0
  7 10  1  0
 11  2  1  0
 12 11  1  0
 13 12  1  0
 14 13  1  0
 14 15  2  0
 15 16  1  0
 16 17  2  0
 17 18  1  0
 18 13  2  0
 17 19  1  0
 20 19  1  0
 20 21  1  0
 19 22  2  0
 23 14  1  0
 24 23  1  0
 12 24  2  0
M  END
> <chembl_id>
CHEMBL3775576

$$$$

  SciTegic12211613092D

 31 34  0  0  0  0            999 V2000
   -5.3425    5.2369    0.0000 N   0  0
   -5.2049    3.7560    0.0000 C   0  0  1  0  0  0
   -6.5563    3.1351    0.0000 C   0  0
   -7.5599    4.2500    0.0000 O   0  0
   -6.8097    5.5489    0.0000 C   0  0
   -3.9067    3.0027    0.0000 C   0  0
   -2.8664    3.6008    0.0000 O   0  0
   -3.9091    1.5019    0.0000 N   0  0
   -2.6111    0.7486    0.0000 C   0  0
   -2.6111   -0.7486    0.0000 C   0  0
   -1.2964   -1.4973    0.0000 C   0  0
   -1.2964    1.4973    0.0000 C   0  0
    0.0000    0.7486    0.0000 C   0  0
    0.0000   -0.7486    0.0000 C   0  0
    1.2964   -1.4973    0.0000 N   0  0
    2.5929   -0.7486    0.0000 C   0  0
    2.5929    0.7486    0.0000 N   0  0
    1.2964    1.4973    0.0000 C   0  0
   -3.9091   -1.5019    0.0000 O   0  0
    1.2995    2.9981    0.0000 N   0  0
   -7.2976    6.6452    0.0000 O   0  0
   -3.9067   -3.0027    0.0000 C   0  0
    2.6003    3.7467    0.0000 C   0  0  1  0  0  0
    3.6385    3.1449    0.0000 C   0  0
    2.6034    5.2475    0.0000 C   0  0
    3.9025    5.9976    0.0000 C   0  0
    3.9025    7.4976    0.0000 C   0  0
    2.6035    8.2476    0.0000 C   0  0
    1.3044    7.4976    0.0000 C   0  0
    1.3044    5.9976    0.0000 C   0  0
   -4.9447   -3.6050    0.0000 C   0  0
  1  2  1  0
  2  3  1  0
  3  4  1  0
  4  5  1  0
  5  1  1  0
  2  6  1  6
  6  7  2  0
  6  8  1  0
  8  9  1  0
  9 10  2  0
 10 11  1  0
 11 14  2  0
 13 12  2  0
 12  9  1  0
 13 14  1  0
 14 15  1  0
 15 16  2  0
 16 17  1  0
 17 18  2  0
 18 13  1  0
 10 19  1  0
 18 20  1  0
  5 21  2  0
 19 22  1  0
 20 23  1  0
 23 24  1  6
 23 25  1  0
 25 26  2  0
 26 27  1  0
 27 28  2  0
 28 29  1  0
 29 30  2  0
 30 25  1  0
 22 31  1  0
M  END
> <chembl_id>
CHEMBL3818563

$$$$

  SciTegic04201616412D

 32 36  0  0  0  0            999 V2000
    0.0000    0.7486    0.0000 C   0  0
   -1.2964    1.4973    0.0000 C   0  0
    0.0000   -0.7486    0.0000 C   0  0
    1.2964    1.4973    0.0000 C   0  0
   -2.6111    0.7486    0.0000 N   0  0
    1.2964   -1.4973    0.0000 C   0  0
   -1.2907    2.9981    0.0000 N   0  0
    2.5929    0.7486    0.0000 C   0  0
    2.5929   -0.7486    0.0000 C   0  0
   -5.1852    3.7608    0.0000 C   0  0
   -1.2964   -1.4973    0.0000 N   0  0
   -3.8880    3.0076    0.0000 C   0  0
   -2.6111   -0.7486    0.0000 C   0  0
   -2.5870    3.7544    0.0000 C   0  0
   -5.1815    5.2608    0.0000 C   0  0
   -3.8807    6.0076    0.0000 C   0  0
   -2.5835    5.2544    0.0000 C   0  0
    3.8911   -1.5017    0.0000 O   0  0
   -3.8777    7.2076    0.0000 Cl  0  0
   -1.5428    5.8519    0.0000 F   0  0
    3.8894   -2.7017    0.0000 C   0  0
    3.8911    1.5017    0.0000 O   0  0
    3.8890    3.0026    0.0000 C   0  0
    5.1872    3.7556    0.0000 N   0  0
    2.8487    3.6008    0.0000 O   0  0
    6.4934    3.0224    0.0000 C   0  0
    7.7617    3.7399    0.0000 C   0  0
    7.7731    5.2195    0.0000 N   0  0
    8.8176    5.8103    0.0000 C   0  0
    5.1969    5.2357    0.0000 C   0  0
    6.4991    5.9722    0.0000 C   0  0
    5.1023    6.7447    0.0000 C   0  0
  2  1  1  0
  3  1  1  0
  4  1  2  0
  5  2  2  0
  6  3  2  0
  7  2  1  0
  8  4  1  0
  9  8  2  0
 10 12  1  0
 11  3  1  0
 12 14  2  0
 13 11  2  0
 14  7  1  0
 15 16  1  0
 16 17  2  0
 17 14  1  0
 18  9  1  0
  6  9  1  0
 13  5  1  0
 10 15  2  0
 16 19  1  0
 17 20  1  0
 18 21  1  0
  8 22  1  0
 22 23  1  0
 23 24  1  0
 23 25  2  0
 24 26  1  0
 24 30  1  0
 26 27  1  0
 27 28  1  0
 28 31  1  0
 28 29  1  0
 31 30  1  0
 32 31  1  0
 30 32  1  0
M  END
> <chembl_id>
CHEMBL3623287

$$$$

  SciTegic01161211262D

 46 52  0  0  0  0            999 V2000
    6.1247   -2.4453    0.0000 N   0  0
    5.4249   -2.0082    0.0000 C   0  0
    5.4537   -1.1836    0.0000 C   0  0
    4.6965   -2.3957    0.0000 O   0  0
    6.1843   -0.7992    0.0000 C   0  0
    6.2133    0.0246    0.0000 C   0  0
    5.5131    0.4626    0.0000 C   0  0
    4.7821    0.0708    0.0000 C   0  0
    4.7567   -0.7517    0.0000 C   0  0
    4.0297   -1.1419    0.0000 F   0  0
    6.8829   -1.2380    0.0000 F   0  0
    3.3049   -9.9465    0.0000 N   0  0
    2.5811   -9.5516    0.0000 C   0  0
    1.8816   -9.9824    0.0000 C   0  0
    1.9028  -10.8076    0.0000 N   0  0
    2.6297  -11.2001    0.0000 C   0  0
    3.3352  -10.7674    0.0000 C   0  0
    5.3755   -3.6237    0.0000 C   0  0
    5.3495   -4.4507    0.0000 C   0  0
    6.0516   -4.8849    0.0000 C   0  0
    6.7802   -4.4933    0.0000 C   0  0
    6.8023   -3.6629    0.0000 C   0  0
    6.0995   -3.2325    0.0000 C   0  0
    7.4833   -4.9235    0.0000 C   0  0
    7.5019   -5.7490    0.0000 C   0  0
    8.2616   -4.6506    0.0000 N   0  0
    8.7621   -5.3065    0.0000 C   0  0
    8.2950   -5.9846    0.0000 N   0  0
    8.7955   -6.6383    0.0000 C   0  0
    9.5719   -6.3644    0.0000 C   0  0
    9.5512   -5.5414    0.0000 S   0  0
    6.7964   -6.1740    0.0000 C   0  0
    6.0745   -5.7724    0.0000 C   0  0
    5.3678   -6.1968    0.0000 C   0  0
    6.8123   -6.9956    0.0000 N   0  0
    6.1086   -7.4222    0.0000 C   0  0
    5.3781   -7.0235    0.0000 N   0  0
    6.1276   -8.2467    0.0000 N   0  0
    5.4206   -8.6722    0.0000 C   0  0
    4.7035   -8.2699    0.0000 C   0  0
    3.9970   -8.6946    0.0000 C   0  0
    4.0114   -9.5203    0.0000 C   0  0
    4.7381   -9.9197    0.0000 C   0  0
    5.4417   -9.4928    0.0000 C   0  0
    1.1998  -11.2393    0.0000 C   0  0
    0.4743  -10.8463    0.0000 C   0  0
  5 11  1  0
  1  2  1  0
  2  3  1  0
  2  4  2  0
  3  5  2  0
  5  6  1  0
  6  7  2  0
  7  8  1  0
  8  9  2  0
  9  3  1  0
  9 10  1  0
 15 16  1  0
 33 34  1  0
 34 37  2  0
 22 23  2  0
 36 35  2  0
 35 32  1  0
 25 32  1  0
 36 37  1  0
 23 18  1  0
 24 25  2  0
 16 17  1  0
 12 13  1  0
 25 28  1  0
 27 26  2  0
 26 24  1  0
 21 24  1  0
 27 28  1  0
 18 19  2  0
 12 17  1  0
 36 38  1  0
 19 20  1  0
 38 39  1  0
 13 14  1  0
 39 40  2  0
 20 21  2  0
 40 41  1  0
 28 29  1  0
 41 42  2  0
 29 30  2  0
 42 43  1  0
 30 31  1  0
 43 44  2  0
 44 39  1  0
 31 27  1  0
 14 15  1  0
 42 12  1  0
 21 22  1  0
 15 45  1  0
 32 33  2  0
 45 46  1  0
 23  1  1  0
M  END
> <chembl_id>
CHEMBL1090358

$$$$

  SciTegic12201616162D

 30 33  0  0  0  0            999 V2000
    3.8942   -1.4964    0.0000 N   0  0
    5.1929   -0.7441    0.0000 C   0  0
    5.1908    0.4559    0.0000 O   0  0
    6.4942   -1.4919    0.0000 N   0  0
    7.7928   -0.7396    0.0000 C   0  0
    9.0941   -1.4873    0.0000 C   0  0
   10.3928   -0.7351    0.0000 N   0  0
   11.6945   -1.4805    0.0000 C   0  0
   12.9909   -0.7260    0.0000 C   0  0
   12.9858    0.7740    0.0000 C   0  0
   11.6841    1.5195    0.0000 C   0  0
   10.3877    0.7650    0.0000 C   0  0
   -1.2964    1.4973    0.0000 N   0  0
   -2.6111    0.7486    0.0000 C   0  0
   -2.6111   -0.7486    0.0000 N   0  0
   -1.2964   -1.4973    0.0000 C   0  0
    0.0000   -0.7486    0.0000 C   0  0
    1.2964   -1.4973    0.0000 C   0  0
    2.5929   -0.7486    0.0000 C   0  0
    2.5929    0.7486    0.0000 C   0  0
    1.2964    1.4973    0.0000 C   0  0
    0.0000    0.7486    0.0000 C   0  0
   -1.2907   -2.9981    0.0000 N   0  0
   -2.5870   -3.7544    0.0000 C   0  0
   -2.5835   -5.2544    0.0000 C   0  0
   -3.8807   -6.0076    0.0000 C   0  0
   -5.1815   -5.2608    0.0000 C   0  0
   -5.1852   -3.7608    0.0000 C   0  0
   -3.8880   -3.0076    0.0000 C   0  0
   -3.8777   -7.2076    0.0000 Br  0  0
  1  2  1  0
  2  3  2  0
  2  4  1  0
  5  6  1  0
  7  8  1  0
  8  9  1  0
  9 10  1  0
 10 11  1  0
 11 12  1  0
  7 12  1  0
  6  7  1  0
  4  5  1  0
 13 14  1  0
 14 15  2  0
 15 16  1  0
 16 17  2  0
 17 18  1  0
 18 19  2  0
 19 20  1  0
 20 21  2  0
 21 22  1  0
 13 22  2  0
 17 22  1  0
 24 25  1  0
 25 26  2  0
 26 27  1  0
 27 28  2  0
 28 29  1  0
 24 29  2  0
 26 30  1  0
 23 24  1  0
 16 23  1  0
  1 19  1  0
M  END
> <chembl_id>
CHEMBL3814882

$$$$

  SciTegic08011209522D

 39 43  0  0  0  0            999 V2000
   -2.0098  -16.6125    0.0000 N   0  0
   -2.0109  -17.4398    0.0000 C   0  0
   -1.2961  -17.8527    0.0000 N   0  0
   -1.2979  -16.1997    0.0000 C   0  0
   -0.5825  -16.6088    0.0000 C   0  0
   -0.5791  -17.4419    0.0000 C   0  0
    0.1401  -17.8532    0.0000 N   0  0
    0.8605  -17.4360    0.0000 C   0  0
    0.8570  -16.6029    0.0000 N   0  0
    0.1332  -16.1870    0.0000 C   0  0
    0.1441  -18.6748    0.0000 C   0  0
   -0.5709  -19.0886    0.0000 C   0  0
   -0.5690  -19.9128    0.0000 C   0  0
    0.1471  -20.3242    0.0000 C   0  0
    0.8628  -19.9053    0.0000 C   0  0
    0.8574  -19.0825    0.0000 C   0  0
   -2.7257  -17.8518    0.0000 N   0  0
   -2.7264  -18.6768    0.0000 C   0  0
   -3.4413  -19.0871    0.0000 C   0  0
   -3.4423  -19.9114    0.0000 C   0  0
   -2.7276  -20.3253    0.0000 C   0  0
   -2.0104  -19.9089    0.0000 C   0  0
   -2.0130  -19.0860    0.0000 C   0  0
    1.5761  -17.8466    0.0000 O   0  0
    1.5798  -20.3134    0.0000 N   0  0
    1.5850  -21.1383    0.0000 C   0  0
    2.3020  -21.5464    0.0000 C   0  0
    0.8731  -21.5553    0.0000 O   0  0
    2.3072  -22.3714    0.0000 C   0  0
   -2.7272  -21.1503    0.0000 N   0  0
    1.5702  -16.1882    0.0000 C   0  0
   -3.4441  -21.5599    0.0000 C   0  0
   -3.4456  -22.3813    0.0000 C   0  0
   -2.7327  -22.7972    0.0000 N   0  0
   -2.0167  -22.3856    0.0000 C   0  0
   -2.0135  -21.5580    0.0000 C   0  0
   -2.7354  -23.6222    0.0000 C   0  0
   -4.1550  -18.6733    0.0000 O   0  0
   -4.1534  -17.8483    0.0000 C   0  0
  6  7  1  0
 18 19  2  0
  7  8  1  0
 19 20  1  0
  8  9  1  0
 20 21  2  0
  9 10  1  0
 21 22  1  0
  5  6  1  0
 22 23  2  0
 23 18  1  0
  8 24  2  0
 11 12  2  0
 15 25  1  0
  2  3  1  0
 25 26  1  0
 12 13  1  0
 26 27  1  0
  3  6  2  0
 26 28  2  0
 13 14  2  0
 27 29  1  0
  1  2  2  0
 21 30  1  0
 14 15  1  0
  9 31  1  0
 30 32  1  0
  5  4  2  0
 15 16  2  0
 16 11  1  0
  7 11  1  0
  4  1  1  0
 30 36  1  0
 32 33  1  0
 33 34  1  0
 34 35  1  0
 35 36  1  0
  2 17  1  0
 34 37  1  0
  5 10  1  0
 19 38  1  0
 17 18  1  0
 38 39  1  0
M  END
> <chembl_id>
CHEMBL2029443

$$$$

  SciTegic12091614152D

 33 35  0  0  0  0            999 V2000
    1.2990   -0.7500    0.0000 C   0  0
    1.2990    0.7500    0.0000 C   0  0
    0.0000    1.5000    0.0000 C   0  0
   -1.2990    0.7500    0.0000 C   0  0
   -1.2990   -0.7500    0.0000 C   0  0
    0.0000   -1.5000    0.0000 C   0  0
    2.5973   -1.5031    0.0000 N   0  0
   -0.0031    3.0008    0.0000 N   0  0
    1.2883   -5.2495    0.0000 C   0  0
    1.2935   -3.7495    0.0000 N   0  0
    2.5951   -3.0039    0.0000 C   0  0
    3.8915   -3.7585    0.0000 C   0  0
    3.8864   -5.2585    0.0000 C   0  0
    2.5847   -6.0040    0.0000 N   0  0
   -0.0125   -5.9981    0.0000 N   0  0
   -0.0155   -7.4989    0.0000 N   0  0
   -1.3163   -8.2475    0.0000 C   0  0
   -1.3194   -9.7484    0.0000 C   0  0
    4.9329   -3.1621    0.0000 Cl  0  0
   -1.3039    3.7494    0.0000 C   0  0
   -2.3421    3.1476    0.0000 O   0  0
   -1.3070    5.2502    0.0000 C   0  0
   -2.6078    5.9988    0.0000 C   0  0
   -2.6109    7.4996    0.0000 C   0  0
   -3.9118    8.2481    0.0000 N   0  0
   -3.9142    9.4481    0.0000 C   0  0
   -4.9499    7.6463    0.0000 C   0  0
   -2.6184  -10.4985    0.0000 N   0  0
   -2.6184  -11.9985    0.0000 C   0  0
   -1.3193  -12.7484    0.0000 C   0  0
   -0.0203  -11.9984    0.0000 C   0  0
   -0.0203  -10.4984    0.0000 C   0  0
   -2.3545   -7.6458    0.0000 C   0  0
  1  2  1  0
  2  3  2  0
  3  4  1  0
  4  5  2  0
  5  6  1  0
  1  6  2  0
  1  7  1  0
  3  8  1  0
  9 10  1  0
 10 11  2  0
 11 12  1  0
 12 13  2  0
 13 14  1  0
  9 14  2  0
 15 16  1  0
 17 18  1  0
 16 17  2  0
  9 15  1  0
 12 19  1  0
  7 11  1  0
  8 20  1  0
 20 21  2  0
 20 22  1  0
 22 23  2  0
 23 24  1  0
 24 25  1  0
 25 26  1  0
 25 27  1  0
 18 28  2  0
 28 29  1  0
 29 30  2  0
 30 31  1  0
 31 32  2  0
 32 18  1  0
 17 33  1  0
M  END
> <chembl_id>
CHEMBL3741324

$$$$

  SciTegic12161615062D

 32 35  0  0  0  0            999 V2000
    1.2990   -0.7500    0.0000 C   0  0
    1.2990    0.7500    0.0000 C   0  0
    0.0000    1.5000    0.0000 C   0  0
   -1.2990    0.7500    0.0000 C   0  0
   -1.2990   -0.7500    0.0000 C   0  0
    0.0000   -1.5000    0.0000 N   0  0
    2.5972    1.5031    0.0000 C   0  0
    3.6375    0.9049    0.0000 O   0  0
    2.5951    3.0039    0.0000 N   0  0
    2.3383   -1.3500    0.0000 O   0  0
   -0.0031    3.0008    0.0000 N   0  0
   -1.3039    3.7494    0.0000 C   0  0
   -1.3092    5.2494    0.0000 C   0  0
   -2.6108    5.9949    0.0000 C   0  0
   -3.9073    5.2404    0.0000 C   0  0
   -3.9021    3.7404    0.0000 C   0  0
   -2.6005    2.9949    0.0000 C   0  0
   -0.0136    6.0070    0.0000 O   0  0
   -0.0195    7.2070    0.0000 C   0  0
    3.8933    3.7570    0.0000 C   0  0
    3.8933    5.2571    0.0000 N   0  0
    5.1924    6.0071    0.0000 C   0  0
    6.4914    5.2571    0.0000 C   0  0
    6.4915    3.7571    0.0000 C   0  0
    5.1925    3.0071    0.0000 C   0  0
    7.7911    6.0075    0.0000 N   0  0
    7.7935    7.5076    0.0000 C   0  0
    9.0937    8.2556    0.0000 C   0  0
   10.3916    7.5036    0.0000 N   0  0
   10.3893    6.0036    0.0000 C   0  0
    9.0891    5.2556    0.0000 C   0  0
   11.4318    8.1019    0.0000 C   0  0
  1  2  1  0
  2  3  2  0
  3  4  1  0
  4  5  2  0
  5  6  1  0
  1  6  1  0
  7  8  2  0
  7  9  1  0
  2  7  1  0
  1 10  2  0
  3 11  1  0
 11 12  1  0
 12 13  2  0
 13 14  1  0
 14 15  2  0
 15 16  1  0
 16 17  2  0
 17 12  1  0
 13 18  1  0
 18 19  1  0
  9 20  1  0
 20 21  2  0
 21 22  1  0
 22 23  2  0
 23 24  1  0
 24 25  2  0
 25 20  1  0
 23 26  1  0
 26 27  1  0
 26 31  1  0
 27 28  1  0
 28 29  1  0
 29 30  1  0
 30 31  1  0
 29 32  1  0
M  END
> <chembl_id>
CHEMBL3780156

$$$$

  SciTegic01161211252D

 42 47  0  0  0  0            999 V2000
    5.5360   -4.9087    0.0000 C   0  0
    5.5099   -5.7358    0.0000 C   0  0
    6.2121   -6.1700    0.0000 C   0  0
    6.9408   -5.7783    0.0000 C   0  0
    6.9629   -4.9481    0.0000 C   0  0
    6.2600   -4.5174    0.0000 C   0  0
    7.6439   -6.2087    0.0000 C   0  0
    7.6625   -7.0342    0.0000 C   0  0
    8.4223   -5.9358    0.0000 N   0  0
    8.9228   -6.5918    0.0000 C   0  0
    8.4557   -7.2698    0.0000 N   0  0
    8.9562   -7.9237    0.0000 C   0  0
    9.7327   -7.6496    0.0000 C   0  0
    9.7120   -6.8265    0.0000 S   0  0
    6.9570   -7.4593    0.0000 C   0  0
    6.2349   -7.0576    0.0000 C   0  0
    5.5282   -7.4821    0.0000 C   0  0
    6.9728   -8.2808    0.0000 N   0  0
    6.2691   -8.7076    0.0000 C   0  0
    5.5385   -8.3088    0.0000 N   0  0
    6.2881   -9.5322    0.0000 N   0  0
    5.5810   -9.9577    0.0000 C   0  0
    4.8639   -9.5554    0.0000 C   0  0
    4.1573   -9.9800    0.0000 C   0  0
    5.6021  -10.7783    0.0000 C   0  0
    4.9010  -11.2063    0.0000 C   0  0
    4.1760  -10.8048    0.0000 C   0  0
    4.9184  -12.0311    0.0000 C   0  0
    4.2127  -12.4587    0.0000 C   0  0
    4.2302  -13.2837    0.0000 N   0  0
    3.5245  -13.7112    0.0000 C   0  0
    4.9533  -13.6810    0.0000 C   0  0
    6.2813   -3.7302    0.0000 N   0  0
    5.5909   -3.2784    0.0000 C   0  0
    4.8544   -3.6506    0.0000 O   0  0
    5.6369   -2.4546    0.0000 C   0  0
    6.3733   -2.0826    0.0000 C   0  0
    7.0624   -2.5353    0.0000 C   0  0
    7.7983   -2.1639    0.0000 C   0  0
    7.8449   -1.3391    0.0000 C   0  0
    7.1493   -0.8873    0.0000 C   0  0
    6.4163   -1.2612    0.0000 C   0  0
  6  1  1  0
 22 23  2  0
  7  8  2  0
 23 24  1  0
 24 27  2  0
 11 12  1  0
 26 25  2  0
 25 22  1  0
 12 13  2  0
 13 14  1  0
 14 10  1  0
  1  2  2  0
  3  4  2  0
 15 16  2  0
 26 27  1  0
 16 17  1  0
 17 20  2  0
  8 11  1  0
 26 28  1  0
 19 18  2  0
 28 29  1  0
 18 15  1  0
 29 30  1  0
  8 15  1  0
 30 31  1  0
 19 20  1  0
 30 32  1  0
  6 33  1  0
 10  9  2  0
  9  7  1  0
  4  7  1  0
 10 11  1  0
  4  5  1  0
  2  3  1  0
 19 21  1  0
  5  6  2  0
 21 22  1  0
 33 34  1  0
 34 35  2  0
 34 36  1  0
 36 37  1  0
 37 38  2  0
 38 39  1  0
 39 40  2  0
 40 41  1  0
 41 42  2  0
 42 37  1  0
M  END
> <chembl_id>
CHEMBL1090363

$$$$

  SciTegic01161211262D

 42 48  0  0  0  0            999 V2000
    4.8000   -4.5092    0.0000 C   0  0
    4.7739   -5.3363    0.0000 C   0  0
    5.4762   -5.7707    0.0000 C   0  0
    6.2050   -5.3790    0.0000 C   0  0
    6.2272   -4.5484    0.0000 C   0  0
    5.5241   -4.1179    0.0000 C   0  0
    6.9083   -5.8093    0.0000 C   0  0
    6.9269   -6.6349    0.0000 C   0  0
    7.6868   -5.5363    0.0000 N   0  0
    8.1873   -6.1924    0.0000 C   0  0
    7.7202   -6.8706    0.0000 N   0  0
    8.2207   -7.5245    0.0000 C   0  0
    8.9974   -7.2505    0.0000 C   0  0
    8.9767   -6.4273    0.0000 S   0  0
    6.2213   -7.0600    0.0000 C   0  0
    5.4990   -6.6583    0.0000 C   0  0
    4.7922   -7.0829    0.0000 C   0  0
    6.2371   -7.8818    0.0000 N   0  0
    5.5332   -8.3085    0.0000 C   0  0
    4.8025   -7.9097    0.0000 N   0  0
    5.5523   -9.1333    0.0000 N   0  0
    4.8450   -9.5588    0.0000 C   0  0
    4.1278   -9.1565    0.0000 C   0  0
    3.4211   -9.5812    0.0000 C   0  0
    4.8662  -10.3796    0.0000 C   0  0
    4.1649  -10.8075    0.0000 C   0  0
    3.4398  -10.4061    0.0000 C   0  0
    2.7335  -10.8311    0.0000 C   0  0
    2.7460  -11.6591    0.0000 N   0  0
    3.4711  -12.0606    0.0000 C   0  0
    4.1838  -11.6339    0.0000 C   0  0
    2.0383  -12.0835    0.0000 C   0  0
    5.5454   -3.3306    0.0000 N   0  0
    4.8390   -2.9039    0.0000 C   0  0
    4.1163   -3.3022    0.0000 O   0  0
    4.8554   -2.0789    0.0000 C   0  0
    5.5782   -1.6805    0.0000 C   0  0
    6.2831   -2.1082    0.0000 C   0  0
    7.0053   -1.7105    0.0000 C   0  0
    7.0222   -0.8846    0.0000 C   0  0
    6.3109   -0.4579    0.0000 C   0  0
    5.5915   -0.8580    0.0000 C   0  0
  6  1  1  0
 22 23  2  0
  7  8  2  0
 23 24  1  0
 24 27  2  0
 11 12  1  0
 26 25  2  0
 25 22  1  0
 12 13  2  0
 13 14  1  0
 14 10  1  0
  1  2  2  0
  3  4  2  0
 15 16  2  0
 26 27  1  0
 16 17  1  0
 17 20  2  0
  8 11  1  0
 19 18  2  0
 18 15  1  0
  8 15  1  0
 26 31  1  0
 27 28  1  0
 28 29  1  0
 29 30  1  0
 30 31  1  0
 19 20  1  0
 29 32  1  0
  6 33  1  0
 10  9  2  0
  9  7  1  0
  4  7  1  0
 10 11  1  0
  4  5  1  0
  2  3  1  0
 19 21  1  0
  5  6  2  0
 21 22  1  0
 33 34  1  0
 34 35  2  0
 34 36  1  0
 36 37  1  0
 37 38  2  0
 38 39  1  0
 39 40  2  0
 40 41  1  0
 41 42  2  0
 42 37  1  0
M  END
> <chembl_id>
CHEMBL1090361

$$$$

  SciTegic08011209522D

 41 45  0  0  0  0            999 V2000
   14.6944  -14.3041    0.0000 N   0  0
   14.6932  -15.1315    0.0000 C   0  0
   15.4081  -15.5444    0.0000 N   0  0
   15.4063  -13.8914    0.0000 C   0  0
   16.1216  -14.3005    0.0000 C   0  0
   16.1251  -15.1336    0.0000 C   0  0
   16.8442  -15.5449    0.0000 N   0  0
   17.5646  -15.1277    0.0000 C   0  0
   17.5612  -14.2946    0.0000 N   0  0
   16.8374  -13.8787    0.0000 C   0  0
   16.8482  -16.3664    0.0000 C   0  0
   16.1332  -16.7803    0.0000 C   0  0
   16.1351  -17.6045    0.0000 C   0  0
   16.8513  -18.0159    0.0000 C   0  0
   17.5670  -17.5970    0.0000 C   0  0
   17.5616  -16.7741    0.0000 C   0  0
   13.9784  -15.5434    0.0000 N   0  0
   13.9778  -16.3684    0.0000 C   0  0
   13.2629  -16.7788    0.0000 C   0  0
   13.2619  -17.6030    0.0000 C   0  0
   13.9766  -18.0169    0.0000 C   0  0
   14.6937  -17.6006    0.0000 C   0  0
   14.6912  -16.7777    0.0000 C   0  0
   18.2802  -15.5382    0.0000 O   0  0
   18.2840  -18.0050    0.0000 N   0  0
   18.2892  -18.8300    0.0000 C   0  0
   19.0062  -19.2380    0.0000 C   0  0
   17.5773  -19.2470    0.0000 O   0  0
   19.0114  -20.0630    0.0000 C   0  0
   13.9770  -18.8419    0.0000 N   0  0
   18.2744  -13.8799    0.0000 C   0  0
   13.2601  -19.2515    0.0000 C   0  0
   13.2586  -20.0729    0.0000 C   0  0
   13.9714  -20.4889    0.0000 N   0  0
   14.6875  -20.0772    0.0000 C   0  0
   14.6907  -19.2496    0.0000 C   0  0
   13.9687  -21.3139    0.0000 C   0  0
   12.5492  -16.3650    0.0000 O   0  0
   12.5507  -15.5400    0.0000 C   0  0
   11.8370  -15.1261    0.0000 C   0  0
   13.2660  -15.1288    0.0000 C   0  0
  7  8  1  0
 19 20  1  0
  8  9  1  0
 20 21  2  0
  9 10  1  0
 21 22  1  0
  5  6  1  0
 22 23  2  0
 23 18  1  0
  8 24  2  0
 11 12  2  0
 15 25  1  0
  2  3  1  0
 25 26  1  0
 12 13  1  0
 26 27  1  0
  3  6  2  0
 26 28  2  0
 13 14  2  0
 27 29  2  0
  1  2  2  0
 21 30  1  0
 14 15  1  0
  9 31  1  0
 30 32  1  0
  5  4  2  0
 15 16  2  0
 16 11  1  0
  7 11  1  0
  4  1  1  0
 30 36  1  0
 32 33  1  0
 33 34  1  0
 34 35  1  0
 35 36  1  0
  2 17  1  0
 34 37  1  0
  5 10  1  0
 19 38  1  0
 17 18  1  0
 38 39  1  0
  6  7  1  0
 39 40  1  0
 18 19  2  0
 39 41  1  0
M  END
> <chembl_id>
CHEMBL2029431

$$$$

  SciTegic12161612032D

 33 37  0  0  0  0            999 V2000
   -2.5978    1.5002    0.0000 N   0  0
   -3.8968    0.7501    0.0000 C   0  0
   -3.8968   -0.7501    0.0000 N   0  0
   -2.5978   -1.5002    0.0000 C   0  0
   -1.2989   -0.7501    0.0000 C   0  0
    0.0000   -1.5002    0.0000 C   0  0
    1.2806   -0.7501    0.0000 C   0  0
    1.2806    0.7501    0.0000 C   0  0
    0.0000    1.5002    0.0000 C   0  0
   -1.2989    0.7501    0.0000 C   0  0
    2.5978    1.5002    0.0000 O   0  0
    2.5978   -1.5002    0.0000 N   0  0
    3.8968   -0.7501    0.0000 C   0  0
    3.8968    0.7501    0.0000 C   0  0
    4.9360   -1.3500    0.0000 O   0  0
    2.6098   -3.0009    0.0000 C   0  0
    3.9150   -3.7418    0.0000 C   0  0
    3.9270   -5.2425    0.0000 C   0  0
    7.8444   -7.4589    0.0000 O   0  0
    6.5525   -8.2211    0.0000 C   0  0
    5.2464   -7.4833    0.0000 C   0  0
    5.2323   -5.9834    0.0000 N   0  0
    6.5243   -5.2212    0.0000 C   0  0
    7.8303   -5.9590    0.0000 C   0  0
   -2.6009   -3.0010    0.0000 N   0  0
   -3.9017   -3.7496    0.0000 C   0  0
   -3.9070   -5.2496    0.0000 C   0  0
   -5.2086   -5.9951    0.0000 C   0  0
   -6.5051   -5.2406    0.0000 C   0  0
   -6.4999   -3.7406    0.0000 C   0  0
   -5.1983   -2.9951    0.0000 C   0  0
   -7.5464   -5.8370    0.0000 F   0  0
   -5.2128   -7.1951    0.0000 Cl  0  0
  1  2  1  0
  2  3  2  0
  3  4  1  0
  4  5  2  0
  5  6  1  0
  6  7  2  0
  7  8  1  0
  8  9  2  0
  9 10  1  0
  1 10  2  0
  5 10  1  0
 12 13  1  0
 13 14  1  0
 11 14  1  0
  7 12  1  0
  8 11  1  0
 13 15  2  0
 16 17  1  0
 17 18  1  0
 19 20  1  0
 20 21  1  0
 21 22  1  0
 22 23  1  0
 23 24  1  0
 19 24  1  0
 18 22  1  0
 12 16  1  0
 26 27  1  0
 27 28  2  0
 28 29  1  0
 29 30  2  0
 30 31  1  0
 26 31  2  0
 29 32  1  0
 28 33  1  0
 25 26  1  0
  4 25  1  0
M  END
> <chembl_id>
CHEMBL3775664

$$$$

  SciTegic09081514182D

 31 32  0  0  0  0            999 V2000
    1.2990   -0.7500    0.0000 C   0  0
    1.2990    0.7500    0.0000 C   0  0
    0.0000    1.5000    0.0000 C   0  0
   -1.2990    0.7500    0.0000 C   0  0
   -1.2990   -0.7500    0.0000 C   0  0
    0.0000   -1.5000    0.0000 C   0  0
   -2.6003   -1.4978    0.0000 C   0  0
   -3.8990   -0.7455    0.0000 C   0  0
   -5.2003   -1.4932    0.0000 C   0  0
   -6.4990   -0.7410    0.0000 C   0  0
   -5.2024   -2.6932    0.0000 O   0  0
   -7.8003   -1.4887    0.0000 C   0  0
   -9.0990   -0.7365    0.0000 C   0  0
   -7.8024   -2.6887    0.0000 O   0  0
  -10.4003   -1.4842    0.0000 C   0  0
  -11.6989   -0.7319    0.0000 C   0  0
  -13.0006   -1.4774    0.0000 C   0  0
  -14.2971   -0.7229    0.0000 C   0  0
  -14.2919    0.7771    0.0000 C   0  0
  -12.9903    1.5226    0.0000 C   0  0
  -11.6938    0.7681    0.0000 C   0  0
    2.5973   -1.5031    0.0000 O   0  0
    2.5972    1.5031    0.0000 O   0  0
  -15.5906    1.5293    0.0000 O   0  0
    2.5956   -2.7031    0.0000 C   0  0
  -12.9820    3.0234    0.0000 O   0  0
    2.5955    2.7031    0.0000 C   0  0
  -16.6311    0.9314    0.0000 C   0  0
    0.0031   -3.0008    0.0000 O   0  0
    1.0432   -3.5993    0.0000 C   0  0
  -11.9399    3.6183    0.0000 C   0  0
  1  2  2  0
  2  3  1  0
  3  4  2  0
  4  5  1  0
  5  6  2  0
  6  1  1  0
  5  7  1  0
  7  8  2  0
  8  9  1  0
  9 10  2  0
  9 11  1  0
 10 12  1  0
 12 13  1  0
 12 14  2  0
 13 15  2  0
 15 16  1  0
 16 17  2  0
 17 18  1  0
 18 19  2  0
 19 20  1  0
 20 21  2  0
 21 16  1  0
  1 22  1  0
  2 23  1  0
 19 24  1  0
 22 25  1  0
 20 26  1  0
 23 27  1  0
 24 28  1  0
  6 29  1  0
 29 30  1  0
 26 31  1  0
M  END
> <chembl_id>
CHEMBL3402847

$$$$

  SciTegic09081514162D

 48 52  0  0  0  0            999 V2000
    1.2990   -0.7500    0.0000 N   0  0
    1.2990    0.7500    0.0000 C   0  0
    0.0000    1.5000    0.0000 N   0  0
   -1.2990    0.7500    0.0000 C   0  0
   -1.2990   -0.7500    0.0000 C   0  0
    0.0000   -1.5000    0.0000 C   0  0
   -2.5973    1.5031    0.0000 O   0  0
    2.5972    1.5031    0.0000 N   0  0
    2.5951    3.0039    0.0000 C   0  0
   -3.8990    0.7562    0.0000 C   0  0
   -5.1976    1.5069    0.0000 C   0  0
   -6.4972    0.7578    0.0000 C   0  0
   -6.4981   -0.7422    0.0000 C   0  0
   -5.1996   -1.4931    0.0000 C   0  0
   -3.9001   -0.7439    0.0000 C   0  0
    3.8915    3.7585    0.0000 C   0  0
    3.8863    5.2585    0.0000 C   0  0
    2.5847    6.0040    0.0000 C   0  0
    1.2883    5.2495    0.0000 C   0  0
    1.2934    3.7495    0.0000 C   0  0
    2.5795    7.5047    0.0000 N   0  0
    3.8747    8.2614    0.0000 C   0  0
    3.8671    9.7614    0.0000 C   0  0
    2.5643   10.5048    0.0000 N   0  0
    1.2691    9.7483    0.0000 C   0  0
    1.2767    8.2483    0.0000 C   0  0
   -2.3383   -1.3500    0.0000 Cl  0  0
   -5.1975   -2.9939    0.0000 N   0  0
   -3.8972   -3.7433    0.0000 C   0  0
   -3.8950   -5.2441    0.0000 C   0  0
   -2.8586   -3.1422    0.0000 O   0  0
   -2.5947   -5.9935    0.0000 C   0  0
    2.5583   11.7048    0.0000 C   0  0
    5.1954    3.0153    0.0000 O   0  0
    6.2317    3.6204    0.0000 C   0  0
   -5.1924   -5.9986    0.0000 C   0  0
   -2.5926   -7.4944    0.0000 C   0  0
   -1.2941   -8.2453    0.0000 C   0  0
   -1.2950   -9.7453    0.0000 C   0  0
   -2.5945  -10.4944    0.0000 C   0  0
   -3.8931   -9.7436    0.0000 C   0  0
   -3.8921   -8.2436    0.0000 C   0  0
   -5.1894   -7.1986    0.0000 F   0  0
   -6.2301   -6.6014    0.0000 F   0  0
   -6.2334   -5.4016    0.0000 F   0  0
   -2.5985  -11.9953    0.0000 N   0  0
   -3.6390  -12.5931    0.0000 C   0  0
   -1.5607  -12.5977    0.0000 C   0  0
  1  2  2  0
  2  3  1  0
  3  4  2  0
  4  5  1  0
  5  6  2  0
  6  1  1  0
  4  7  1  0
  2  8  1  0
  8  9  1  0
  7 10  1  0
 10 11  2  0
 11 12  1  0
 12 13  2  0
 13 14  1  0
 14 15  2  0
 15 10  1  0
  9 16  2  0
 16 17  1  0
 17 18  2  0
 18 19  1  0
 19 20  2  0
 20  9  1  0
 21 22  1  0
 22 23  1  0
 23 24  1  0
 24 25  1  0
 25 26  1  0
 26 21  1  0
 18 21  1  0
  5 27  1  0
 14 28  1  0
 28 29  1  0
 29 30  1  0
 29 31  2  0
 30 32  2  0
 24 33  1  0
 16 34  1  0
 34 35  1  0
 30 36  1  0
 32 37  1  0
 37 38  2  0
 38 39  1  0
 39 40  2  0
 40 41  1  0
 41 42  2  0
 42 37  1  0
 36 43  1  0
 36 44  1  0
 36 45  1  0
 40 46  1  0
 46 47  1  0
 46 48  1  0
M  END
> <chembl_id>
CHEMBL3425669

$$$$

  SciTegic12121614122D

 44 49  0  0  0  0            999 V2000
   -1.2913    7.5063    0.0000 C   0  0
   -2.5882    8.2616    0.0000 C   0  0
   -0.2500    8.1028    0.0000 O   0  0
   -1.2959    6.0055    0.0000 N   0  0
    0.0011    5.2503    0.0000 C   0  0
   -0.0014    3.7503    0.0000 C   0  0
    1.2964    2.9980    0.0000 C   0  0
    2.5967    3.7460    0.0000 C   0  0
    2.5992    5.2460    0.0000 C   0  0
    1.3014    5.9981    0.0000 C   0  0
   -2.6111    0.7486    0.0000 C   0  0
   -1.2964    1.4973    0.0000 N   0  0
    0.0000    0.7486    0.0000 C   0  0
    0.0000   -0.7486    0.0000 C   0  0
   -1.2964   -1.4973    0.0000 C   0  0
   -2.6111   -0.7486    0.0000 N   0  0
    1.2964   -1.4973    0.0000 C   0  0
    2.5929   -0.7486    0.0000 C   0  0
    2.5929    0.7486    0.0000 C   0  0
    1.2964    1.4973    0.0000 N   0  0
    3.8926   -1.4990    0.0000 C   0  0
    5.1929   -0.7510    0.0000 C   0  0
    6.4908   -1.5029    0.0000 C   0  0
    6.4885   -3.0029    0.0000 C   0  0
    5.1883   -3.7510    0.0000 C   0  0
    3.8904   -2.9990    0.0000 C   0  0
    3.6321    1.3486    0.0000 O   0  0
   -3.9122    1.4966    0.0000 N   0  0
   -5.2109    0.7445    0.0000 C   0  0
   -6.5125    1.4901    0.0000 C   0  0
   -7.8091    0.7359    0.0000 C   0  0
   -7.8042   -0.7641    0.0000 C   0  0
   -6.5027   -1.5098    0.0000 C   0  0
   -5.2061   -0.7556    0.0000 C   0  0
   -9.1014   -1.5188    0.0000 N   0  0
  -10.4041   -0.7752    0.0000 C   0  0
  -11.6995   -1.5315    0.0000 C   0  0
  -11.6922   -3.0315    0.0000 N   0  0
  -10.3895   -3.7751    0.0000 C   0  0
   -9.0942   -3.0188    0.0000 C   0  0
  -12.7285   -3.6365    0.0000 C   0  0
   -6.5206    2.9910    0.0000 O   0  0
   -7.5627    3.5860    0.0000 C   0  0
   -2.5845    9.4615    0.0000 C   0  0
  1  2  1  0
  1  3  2  0
  1  4  1  0
  5  6  1  0
  6  7  2  0
  7  8  1  0
  8  9  2  0
  9 10  1  0
  5 10  2  0
 11 12  1  0
 12 13  2  0
 13 14  1  0
 14 15  2  0
 15 16  1  0
 11 16  2  0
 17 18  2  0
 18 19  1  0
 19 20  1  0
 13 20  1  0
 14 17  1  0
 21 22  1  0
 22 23  2  0
 23 24  1  0
 24 25  2  0
 25 26  1  0
 21 26  2  0
 18 21  1  0
 19 27  2  0
 29 30  1  0
 30 31  2  0
 31 32  1  0
 32 33  2  0
 33 34  1  0
 29 34  2  0
 35 36  1  0
 36 37  1  0
 37 38  1  0
 38 39  1  0
 39 40  1  0
 35 40  1  0
 38 41  1  0
 32 35  1  0
 42 43  1  0
 30 42  1  0
 28 29  1  0
 11 28  1  0
  7 20  1  0
  4  5  1  0
  2 44  2  0
M  END
> <chembl_id>
CHEMBL3753235

$$$$

  SciTegic05221516342D

 28 31  0  0  0  0            999 V2000
   29.1156   -4.7347    0.0000 C   0  0
   29.9328   -4.7347    0.0000 C   0  0
   30.3414   -5.4438    0.0000 C   0  0
   29.9328   -6.1529    0.0000 C   0  0
   29.1156   -6.1529    0.0000 C   0  0
   28.7070   -5.4438    0.0000 N   0  0
   31.2238   -4.4626    0.0000 N   0  0
   31.1398   -5.2731    0.0000 N   0  0
   30.4765   -4.1283    0.0000 C   0  0
   30.3099   -3.3299    0.0000 N   0  0
   28.7070   -6.8620    0.0000 N   0  0
   26.6640   -6.1529    0.0000 C   0  0
   27.4812   -6.1529    0.0000 N   0  0
   27.8898   -6.8620    0.0000 C   0  0
   27.4812   -7.5670    0.0000 C   0  0
   26.6640   -7.5670    0.0000 C   0  0
   26.2554   -6.8620    0.0000 N   0  0
   26.2554   -5.4438    0.0000 N   0  0
   25.4383   -5.4438    0.0000 C   0  0
   25.0297   -4.7347    0.0000 C   0  0
   25.4383   -4.0298    0.0000 C   0  0
   26.2554   -4.0298    0.0000 C   0  0
   26.6640   -4.7347    0.0000 C   0  0
   25.0297   -3.3207    0.0000 O   0  0
   24.2125   -3.3207    0.0000 C   0  0
   31.7463   -5.8209    0.0000 C   0  0
   32.5336   -5.6119    0.0000 C   0  0
   31.5755   -6.6193    0.0000 C   0  0
  1  2  1  0
  2  3  2  0
  3  4  1  0
  4  5  2  0
  5  6  1  0
  1  6  2  0
  7  8  1  0
  7  9  2  0
  2  9  1  0
  3  8  1  0
  9 10  1  0
  5 11  1  0
 12 13  1  0
 13 14  2  0
 14 15  1  0
 15 16  2  0
 16 17  1  0
 12 17  2  0
 18 19  1  0
 19 20  1  0
 20 21  1  0
 21 22  1  0
 22 23  1  0
 18 23  1  0
 24 25  1  0
 21 24  1  0
 12 18  1  0
 11 14  1  0
 26 27  1  0
 26 28  1  0
  8 26  1  0
M  END
> <chembl_id>
CHEMBL3354191

$$$$

  SciTegic11131810262D

 27 28  0  0  0  0            999 V2000
    3.6387   -0.8963    0.0000 C   0  0
    2.6003   -1.4977    0.0000 O   0  0
    1.2990   -0.7500    0.0000 C   0  0
    1.2990    0.7500    0.0000 C   0  0
    0.0000    1.5000    0.0000 C   0  0
   -0.0031    3.0008    0.0000 C   0  0
   -1.3039    3.7494    0.0000 C   0  0
   -1.3070    5.2502    0.0000 C   0  0
   -2.6078    5.9988    0.0000 C   0  0
   -2.6109    7.4996    0.0000 C   0  0
   -1.5728    8.1014    0.0000 O   0  0
   -3.9118    8.2481    0.0000 C   0  0
   -3.9149    9.7490    0.0000 C   0  0
   -5.2157   10.4975    0.0000 C   0  0
   -5.2210   11.9975    0.0000 C   0  0
   -6.5226   12.7430    0.0000 C   0  0
   -7.8190   11.9885    0.0000 C   0  0
   -8.8603   12.5849    0.0000 O   0  0
   -7.8138   10.4885    0.0000 C   0  0
   -9.1094    9.7310    0.0000 O   0  0
   -9.1036    8.5310    0.0000 C   0  0
   -6.5122    9.7430    0.0000 C   0  0
   -0.2688    5.8520    0.0000 O   0  0
   -1.2990    0.7500    0.0000 C   0  0
   -1.2990   -0.7500    0.0000 C   0  0
    0.0000   -1.5000    0.0000 C   0  0
    0.0000   -2.7000    0.0000 O   0  0
  1  2  1  0
  2  3  1  0
  3  4  2  0
  4  5  1  0
  5  6  1  0
  6  7  2  0
  7  8  1  0
  8  9  2  0
  9 10  1  0
 10 11  2  0
 10 12  1  0
 12 13  2  0
 13 14  1  0
 14 15  2  0
 15 16  1  0
 16 17  2  0
 17 18  1  0
 17 19  1  0
 19 20  1  0
 20 21  1  0
 19 22  2  0
 22 14  1  0
  8 23  1  0
  5 24  2  0
 24 25  1  0
 25 26  2  0
 26  3  1  0
 26 27  1  0
M  END
> <chembl_id>
CHEMBL116438

$$$$

  SciTegic04301217312D

 32 35  0  0  0  0            999 V2000
   -2.6891  -14.0384    0.0000 C   0  0
   -2.6903  -14.8658    0.0000 C   0  0
   -1.9754  -15.2787    0.0000 C   0  0
   -1.9772  -13.6256    0.0000 C   0  0
   -1.2618  -14.0347    0.0000 C   0  0
   -1.2610  -14.8617    0.0000 C   0  0
   -0.5456  -15.2726    0.0000 N   0  0
    0.1694  -14.8579    0.0000 C   0  0
    0.1646  -14.0278    0.0000 N   0  0
   -0.5513  -13.6206    0.0000 C   0  0
   -0.5556  -12.7956    0.0000 N   0  0
    0.1566  -12.3792    0.0000 C   0  0
    0.8688  -12.7914    0.0000 C   0  0
    1.5806  -12.3757    0.0000 C   0  0
    1.5766  -11.5499    0.0000 C   0  0
    0.8550  -11.1412    0.0000 C   0  0
    0.1460  -11.5593    0.0000 C   0  0
    2.2971  -12.7848    0.0000 Cl  0  0
    2.2884  -11.1325    0.0000 O   0  0
    3.0056  -11.5404    0.0000 C   0  0
    3.7174  -11.1231    0.0000 C   0  0
    4.4327  -11.5335    0.0000 C   0  0
    5.1439  -11.1169    0.0000 C   0  0
    5.1389  -10.2910    0.0000 C   0  0
    4.4166   -9.8835    0.0000 C   0  0
    3.7083  -10.3024    0.0000 C   0  0
    5.8610  -11.5251    0.0000 F   0  0
   -3.4037  -13.6260    0.0000 N   0  0
   -4.1182  -14.0387    0.0000 C   0  0
   -4.8327  -13.6264    0.0000 C   0  0
   -4.1180  -14.8638    0.0000 O   0  0
   -5.5472  -14.0390    0.0000 C   0  0
  1  2  2  0
 15 16  1  0
  7  8  2  0
 16 17  2  0
 17 12  1  0
  5  4  2  0
 14 18  1  0
  8  9  1  0
 15 19  1  0
  4  1  1  0
 19 20  1  0
  9 10  2  0
 20 21  1  0
 10  5  1  0
 21 22  2  0
 22 23  1  0
 10 11  1  0
 23 24  2  0
  2  3  1  0
 24 25  1  0
 11 12  1  0
 25 26  2  0
 26 21  1  0
  5  6  1  0
 23 27  1  0
 12 13  2  0
  1 28  1  0
  3  6  2  0
 28 29  1  0
 13 14  1  0
 29 30  1  0
  6  7  1  0
 29 31  2  0
 14 15  2  0
 30 32  2  0
M  END
> <chembl_id>
CHEMBL1947204

$$$$

  SciTegic01231713372D

 30 34  0  0  0  0            999 V2000
   -2.6111    0.7486    0.0000 C   0  0
   -2.6111   -0.7486    0.0000 C   0  0
   -1.2964   -1.4973    0.0000 C   0  0
   -1.2964    1.4973    0.0000 C   0  0
    0.0000    0.7486    0.0000 C   0  0
    0.0000   -0.7486    0.0000 C   0  0
    1.2964   -1.4973    0.0000 N   0  0
    2.5929   -0.7486    0.0000 C   0  0
    2.5929    0.7486    0.0000 N   0  0
    1.2964    1.4973    0.0000 C   0  0
   -3.9086    1.5029    0.0000 C   0  0
   -4.0476    2.9835    0.0000 C   0  0
   -5.5150    3.2942    0.0000 N   0  0
   -6.2640    1.9946    0.0000 N   0  0
   -5.2594    0.8807    0.0000 C   0  0
    1.2995    2.9981    0.0000 N   0  0
    2.6003    3.7467    0.0000 C   0  0
   -7.7564    1.8365    0.0000 C   0  0
    2.6056    5.2467    0.0000 C   0  0
    3.9072    5.9922    0.0000 C   0  0
    5.2037    5.2377    0.0000 C   0  0
    5.1985    3.7377    0.0000 C   0  0
    3.8969    2.9922    0.0000 C   0  0
    3.9114    7.1922    0.0000 Cl  0  0
    6.2450    5.8341    0.0000 F   0  0
   -8.7239    2.9763    0.0000 C   0  0
  -10.1995    2.7065    0.0000 C   0  0
  -10.7036    1.2938    0.0000 N   0  0
   -9.7322    0.1508    0.0000 C   0  0
   -8.2567    0.4206    0.0000 C   0  0
  1  2  2  0
  2  3  1  0
  3  6  2  0
  5  4  2  0
  4  1  1  0
  5  6  1  0
  6  7  1  0
  7  8  2  0
  8  9  1  0
  9 10  2  0
 10  5  1  0
 11 12  1  0
 12 13  2  0
 13 14  1  0
 14 15  1  0
 15 11  2  0
  1 11  1  0
 10 16  1  0
 16 17  1  0
 14 18  1  0
 17 19  2  0
 19 20  1  0
 20 21  2  0
 21 22  1  0
 22 23  2  0
 23 17  1  0
 20 24  1  0
 21 25  1  0
 18 26  1  0
 18 30  1  0
 26 27  1  0
 27 28  1  0
 28 29  1  0
 29 30  1  0
M  END
> <chembl_id>
CHEMBL3828092

$$$$

  SciTegic12131613492D

 27 31  0  0  0  0            999 V2000
    0.8955    2.0810    0.0000 C   0  0
    1.7138    1.2033    0.0000 C   0  0
    2.8908    1.4370    0.0000 C   0  0
   -1.0028    1.5132    0.0000 N   0  0
   -2.3155    0.7475    0.0000 C   0  0
   -2.3155   -0.7475    0.0000 N   0  0
   -1.0028   -1.5132    0.0000 C   0  0
    0.2917    0.7475    0.0000 C   0  0
    0.2917   -0.7475    0.0000 C   0  0
    1.7138   -1.2033    0.0000 C   0  0
    2.5889    0.0182    0.0000 O   0  0
   -3.6168    1.4950    0.0000 C   0  0
   -4.9669    0.8708    0.0000 C   0  0
   -5.9732    1.9832    0.0000 N   0  0
   -5.2262    3.2840    0.0000 N   0  0
   -3.7582    2.9755    0.0000 C   0  0
   -0.9971   -3.0138    0.0000 N   0  0
   -2.2935   -3.7700    0.0000 C   0  0
   -4.6304   -4.2656    0.0000 N   0  0
   -3.6203   -3.1531    0.0000 N   0  0
   -3.8857   -5.5600    0.0000 C   0  0
   -2.4241   -5.2456    0.0000 C   0  0
   -1.4032   -6.3500    0.0000 C   0  0
   -1.8757   -7.7944    0.0000 C   0  0
   -3.3373   -8.1089    0.0000 C   0  0
   -4.3620   -6.9866    0.0000 C   0  0
   -3.7027   -9.2519    0.0000 F   0  0
  2  1  1  0
  3  2  1  0
  8  4  1  0
  4  5  2  0
  5  6  1  0
  6  7  2  0
  7  9  1  0
  8  9  2  0
  9 10  1  0
 10 11  1  0
 11  2  1  0
  2  8  1  0
  5 12  1  0
 12 13  2  0
 13 14  1  0
 14 15  1  0
 15 16  2  0
 16 12  1  0
  7 17  1  0
 17 18  1  0
 18 22  1  0
 21 19  1  0
 19 20  1  0
 20 18  2  0
 21 22  2  0
 22 23  1  0
 23 24  2  0
 24 25  1  0
 25 26  2  0
 26 21  1  0
 25 27  1  0
M  END
> <chembl_id>
CHEMBL3759499

$$$$

  SciTegic09261414462D

 33 37  0  0  0  0            999 V2000
   19.7114  -16.1814    0.0000 N   0  0
   20.4210  -15.7720    0.0000 C   0  0
   20.4182  -14.9493    0.0000 N   0  0
   19.7096  -14.5441    0.0000 C   0  0
   19.0033  -15.7724    0.0000 C   0  0
   19.0045  -14.9559    0.0000 C   0  0
   18.2284  -14.7024    0.0000 C   0  0
   17.7474  -15.3623    0.0000 C   0  0
   18.2264  -16.0235    0.0000 S   0  0
   19.7058  -13.7269    0.0000 N   0  0
   20.4116  -13.3150    0.0000 C   0  0
   21.1190  -13.7251    0.0000 C   0  0
   21.8244  -13.3140    0.0000 C   0  0
   21.8211  -12.4959    0.0000 C   0  0
   21.1065  -12.0908    0.0000 C   0  0
   20.4041  -12.5043    0.0000 C   0  0
   16.9302  -15.3611    0.0000 N   0  0
   16.5226  -14.6528    0.0000 C   0  0
   15.7054  -14.6516    0.0000 C   0  0
   16.9322  -13.9457    0.0000 O   0  0
   22.5263  -12.0831    0.0000 F   0  0
   22.5338  -13.7197    0.0000 Cl  0  0
   15.2978  -13.9433    0.0000 C   0  0
   14.4807  -13.9422    0.0000 C   0  0
   14.0731  -13.2339    0.0000 N   0  0
   14.4870  -12.5306    0.0000 C   0  0
   14.0829  -11.8244    0.0000 C   0  0
   13.2654  -11.8190    0.0000 C   0  0
   12.8536  -12.5260    0.0000 C   0  0
   13.2593  -13.2383    0.0000 C   0  0
   14.4952  -11.1189    0.0000 O   0  0
   13.4300  -13.0998    0.0000 C   0  0
   13.4259  -12.2826    0.0000 C   0  0
  5  1  1  0
  1  2  2  0
  2  3  1  0
  3  4  2  0
  4  6  1  0
  5  6  2  0
  6  7  1  0
  7  8  2  0
  8  9  1  0
  9  5  1  0
  4 10  1  0
 10 11  1  0
 11 12  2  0
 12 13  1  0
 13 14  2  0
 14 15  1  0
 15 16  2  0
 16 11  1  0
  8 17  1  0
 17 18  1  0
 18 19  1  0
 18 20  2  0
 14 21  1  0
 13 22  1  0
 19 23  2  0
 23 24  1  0
 24 25  1  0
 25 26  1  0
 25 30  1  0
 26 27  1  0
 27 28  1  0
 28 29  1  0
 29 30  1  0
 27 31  2  0
 29 32  1  0
 32 33  1  0
 33 26  1  0
M  END
> <chembl_id>
CHEMBL3233785

$$$$

  SciTegic06061310022D

 40 46  0  0  0  0            999 V2000
    6.1409   -7.7940    0.0000 N   0  0
    6.6929   -8.4071    0.0000 C   0  0
    6.4380   -9.1917    0.0000 N   0  0
    5.3339   -7.9655    0.0000 C   0  0
    5.0790   -8.7501    0.0000 C   0  0
    5.6310   -9.3632    0.0000 C   0  0
    5.2185  -10.0777    0.0000 N   0  0
    4.4116   -9.9062    0.0000 N   0  0
    4.3253   -9.0857    0.0000 C   0  0
    4.7819   -7.3524    0.0000 N   0  0
    3.6109   -8.6732    0.0000 C   0  0
    2.8964   -9.0857    0.0000 C   0  0
    2.8964   -7.4357    0.0000 C   0  0
    3.6109   -7.8482    0.0000 C   0  0
    5.5541  -10.8314    0.0000 C   0  0  1  0  0  0
    6.3746  -10.9176    0.0000 C   0  0
    6.7101  -11.6713    0.0000 C   0  0
    6.2252  -12.3387    0.0000 C   0  0  1  0  0  0
    5.4047  -12.2525    0.0000 C   0  0
    5.0692  -11.4988    0.0000 C   0  0
    6.5608  -13.0924    0.0000 N   0  0
    7.3812  -13.1786    0.0000 C   0  0
    7.7168  -13.9323    0.0000 C   0  0
    7.2319  -14.5997    0.0000 N   0  0
    6.4114  -14.5135    0.0000 C   0  0
    6.0758  -13.7598    0.0000 C   0  0
    2.1819   -7.8482    0.0000 C   0  0
    2.1819   -8.6732    0.0000 C   0  0
    1.3973   -8.9281    0.0000 N   0  0
    0.9124   -8.2607    0.0000 C   0  0
    1.3973   -7.5932    0.0000 N   0  0
    0.0874   -8.2607    0.0000 C   0  0
   -0.3251   -7.5462    0.0000 C   0  0
   -1.1501   -7.5462    0.0000 C   0  0
   -1.5626   -6.8317    0.0000 C   0  0
   -1.1501   -6.1173    0.0000 C   0  0
   -0.3251   -6.1173    0.0000 C   0  0
    0.0874   -6.8317    0.0000 C   0  0
    0.9124   -6.8317    0.0000 O   0  0
    1.3249   -6.1173    0.0000 C   0  0
 16 17  1  0
 17 18  1  0
 18 19  1  0
 19 20  1  0
 15  7  1  1
 21 22  1  0
  4  1  1  0
  4 10  1  0
  5  6  1  0
 11 12  2  0
 12 28  1  0
 21 26  1  0
 22 23  1  0
 23 24  1  0
 24 25  1  0
 25 26  1  0
 18 21  1  6
 27 28  2  0
  2  3  1  0
 27 13  1  0
  3  6  2  0
 13 14  2  0
 14 11  1  0
 28 29  1  0
 29 30  1  0
 30 31  2  0
 31 27  1  0
  9 11  1  0
 30 32  1  0
 15 16  1  0
 32 33  1  0
  1  2  2  0
 33 34  2  0
  5  4  2  0
 34 35  1  0
  6  7  1  0
 35 36  2  0
  7  8  1  0
 36 37  1  0
  8  9  2  0
 37 38  2  0
 38 33  1  0
  9  5  1  0
 38 39  1  0
 15 20  1  0
 39 40  1  0
M  END
> <chembl_id>
CHEMBL455208

$$$$

  SciTegic05061409512D

 26 29  0  0  0  0            999 V2000
    4.7665  -28.5233    0.0000 N   0  0
    5.4718  -28.1188    0.0000 C   0  0
    5.4718  -27.3016    0.0000 N   0  0
    4.7665  -26.8889    0.0000 C   0  0
    4.0612  -28.1188    0.0000 C   0  0
    4.0567  -27.3017    0.0000 C   0  0
    3.2854  -28.3755    0.0000 S   0  0
    2.8014  -27.7172    0.0000 C   0  0
    3.2769  -27.0573    0.0000 C   0  0
    2.9450  -26.3197    0.0000 C   0  0
    2.1366  -26.2357    0.0000 C   0  0
    1.6611  -26.8956    0.0000 N   0  0
    1.9941  -27.6395    0.0000 C   0  0
    4.7676  -26.0717    0.0000 N   0  0
    0.8482  -26.8126    0.0000 C   0  0
    0.5136  -26.0670    0.0000 C   0  0
    0.3698  -27.4751    0.0000 O   0  0
    0.9920  -25.4045    0.0000 C   0  0
    5.4758  -25.6641    0.0000 C   0  0
    6.1822  -26.0752    0.0000 C   0  0
    6.8900  -25.6682    0.0000 C   0  0
    6.8915  -24.8502    0.0000 C   0  0
    6.1794  -24.4408    0.0000 C   0  0
    5.4745  -24.8501    0.0000 C   0  0
    6.1776  -23.6236    0.0000 C   0  0
    6.8844  -23.2135    0.0000 C   0  0
  6  4  1  0
  5  1  1  0
  1  2  2  0
  2  3  1  0
  3  4  2  0
  5  6  2  0
  6  9  1  0
  8  7  1  0
  7  5  1  0
  8  9  2  0
  8 13  1  0
  9 10  1  0
 10 11  1  0
 11 12  1  0
 12 13  1  0
  4 14  1  0
 12 15  1  0
 15 16  1  0
 15 17  2  0
 16 18  2  0
 14 19  1  0
 19 20  2  0
 20 21  1  0
 21 22  2  0
 22 23  1  0
 23 24  2  0
 24 19  1  0
 23 25  1  0
 25 26  1  0
M  END
> <chembl_id>
CHEMBL3133898

$$$$

  SciTegic09081514182D

 33 34  0  0  0  0            999 V2000
    1.2990   -0.7500    0.0000 C   0  0
    1.2990    0.7500    0.0000 C   0  0
    0.0000    1.5000    0.0000 C   0  0
   -1.2990    0.7500    0.0000 C   0  0
   -1.2990   -0.7500    0.0000 C   0  0
    0.0000   -1.5000    0.0000 C   0  0
   -2.5972   -1.5031    0.0000 C   0  0
   -2.5951   -3.0039    0.0000 C   0  0
   -3.8933   -3.7570    0.0000 C   0  0
   -3.8912   -5.2578    0.0000 C   0  0
   -4.9336   -3.1588    0.0000 O   0  0
   -5.1894   -6.0109    0.0000 C   0  0
   -5.1872   -7.5117    0.0000 C   0  0
   -6.2296   -5.4127    0.0000 O   0  0
   -6.4854   -8.2648    0.0000 C   0  0
   -6.4833   -9.7657    0.0000 C   0  0
   -7.7797  -10.5203    0.0000 C   0  0
   -7.7745  -12.0202    0.0000 C   0  0
   -6.4729  -12.7657    0.0000 C   0  0
   -5.1764  -12.0112    0.0000 C   0  0
   -5.1816  -10.5113    0.0000 C   0  0
    2.5973   -1.5031    0.0000 O   0  0
    2.3383    1.3500    0.0000 O   0  0
   -6.4687  -13.9657    0.0000 O   0  0
   -4.1351  -12.6076    0.0000 O   0  0
   -2.5916   -6.0087    0.0000 C   0  0
   -2.5912   -7.5095    0.0000 C   0  0
   -1.2916   -8.2603    0.0000 C   0  0
   -0.2524   -7.6603    0.0000 O   0  0
   -1.2912   -9.7611    0.0000 O   0  0
    2.5956   -2.7031    0.0000 C   0  0
    0.0084  -10.5119    0.0000 C   0  0
    0.0087  -11.7119    0.0000 C   0  0
  1  2  2  0
  2  3  1  0
  3  4  2  0
  4  5  1  0
  5  6  2  0
  6  1  1  0
  5  7  1  0
  7  8  2  0
  8  9  1  0
  9 10  2  0
  9 11  1  0
 10 12  1  0
 12 13  1  0
 12 14  2  0
 13 15  2  0
 15 16  1  0
 16 17  2  0
 17 18  1  0
 18 19  2  0
 19 20  1  0
 20 21  2  0
 21 16  1  0
  1 22  1  0
  2 23  1  0
 19 24  1  0
 20 25  1  0
 10 26  1  0
 26 27  2  0
 27 28  1  0
 28 29  2  0
 28 30  1  0
 22 31  1  0
 30 32  1  0
 32 33  1  0
M  END
> <chembl_id>
CHEMBL3402857

$$$$

  SciTegic12161615052D

 31 34  0  0  0  0            999 V2000
    1.2990   -0.7500    0.0000 C   0  0
    1.2990    0.7500    0.0000 C   0  0
    0.0000    1.5000    0.0000 C   0  0
   -1.2990    0.7500    0.0000 C   0  0
   -1.2990   -0.7500    0.0000 C   0  0
    0.0000   -1.5000    0.0000 N   0  0
    2.5972    1.5031    0.0000 C   0  0
    3.6375    0.9049    0.0000 O   0  0
    2.5951    3.0039    0.0000 N   0  0
    2.3383   -1.3500    0.0000 O   0  0
    3.8933    3.7570    0.0000 C   0  0
    3.8933    5.2571    0.0000 C   0  0
    5.1924    6.0071    0.0000 C   0  0
    6.4914    5.2571    0.0000 C   0  0
    6.4915    3.7571    0.0000 C   0  0
    5.1925    3.0071    0.0000 C   0  0
    7.7911    6.0075    0.0000 N   0  0
    7.7935    7.5076    0.0000 C   0  0
    9.0937    8.2556    0.0000 C   0  0
   10.3916    7.5036    0.0000 N   0  0
   10.3893    6.0036    0.0000 C   0  0
    9.0891    5.2556    0.0000 C   0  0
   11.4318    8.1019    0.0000 C   0  0
   -0.0031    3.0008    0.0000 N   0  0
   -1.3039    3.7494    0.0000 C   0  0
   -1.3070    5.2502    0.0000 C   0  0
   -2.6061    6.0003    0.0000 C   0  0
   -2.6061    7.5003    0.0000 C   0  0
   -1.3071    8.2503    0.0000 C   0  0
   -0.0080    7.5003    0.0000 C   0  0
   -0.0080    6.0003    0.0000 C   0  0
  1  2  1  0
  2  3  2  0
  3  4  1  0
  4  5  2  0
  5  6  1  0
  1  6  1  0
  7  8  2  0
  7  9  1  0
  2  7  1  0
  1 10  2  0
 11 12  1  0
 12 13  2  0
 13 14  1  0
 14 15  2  0
 15 16  1  0
 11 16  2  0
 17 18  1  0
 18 19  1  0
 19 20  1  0
 20 21  1  0
 21 22  1  0
 17 22  1  0
 20 23  1  0
 14 17  1  0
  9 11  1  0
  3 24  1  0
 24 25  1  0
 25 26  1  0
 26 27  2  0
 27 28  1  0
 28 29  2  0
 29 30  1  0
 30 31  2  0
 31 26  1  0
M  END
> <chembl_id>
CHEMBL3780709

$$$$

  SciTegic08011209522D

 42 46  0  0  0  0            999 V2000
    2.4999   -1.4448    0.0000 C   0  0
    3.2145   -1.0325    0.0000 C   0  0
    3.9289   -1.4452    0.0000 C   0  0
    2.4997   -2.2698    0.0000 O   0  0
    1.7856   -1.0321    0.0000 N   0  0
    4.6435   -1.0329    0.0000 N   0  0
    4.6437   -0.2079    0.0000 C   0  0
    5.3583    0.2044    0.0000 C   0  0
    6.0726   -0.2083    0.0000 C   0  0
    6.0724   -1.0333    0.0000 C   0  0
    5.3578   -1.4456    0.0000 C   0  0
   -1.0728   -2.6813    0.0000 N   0  0
   -1.7871   -2.2687    0.0000 C   0  0
   -1.7869   -1.4437    0.0000 C   0  0
   -1.0723   -1.0313    0.0000 C   0  0
   -0.3580   -1.4440    0.0000 C   0  0
    0.3566   -1.0317    0.0000 C   0  0
    1.0710   -1.4444    0.0000 C   0  0
    1.0708   -2.2694    0.0000 C   0  0
    0.3562   -2.6817    0.0000 C   0  0
   -0.3582   -2.2690    0.0000 C   0  0
    1.7851   -2.6821    0.0000 O   0  0
    1.7849   -3.5071    0.0000 C   0  0
    2.4993   -3.9198    0.0000 C   0  0
   -2.5013   -1.0310    0.0000 C   0  0
   -3.2156   -0.6183    0.0000 N   0  0
   -1.0721   -0.2063    0.0000 N   0  0
   -1.7865    0.2063    0.0000 C   0  0
   -2.5010   -0.2060    0.0000 C   0  0
   -3.2154    0.2067    0.0000 C   0  0
   -3.2152    1.0317    0.0000 C   0  0
   -2.5006    1.4440    0.0000 C   0  0
   -1.7862    1.0313    0.0000 C   0  0
   -3.9295    1.4444    0.0000 O   0  0
   -3.9293    2.2694    0.0000 C   0  0
   -4.6437    2.6821    0.0000 C   0  0
   -5.3583    2.2698    0.0000 C   0  0
   -6.0726    2.6825    0.0000 C   0  0
   -6.0724    3.5075    0.0000 C   0  0
   -5.3578    3.9198    0.0000 C   0  0
   -4.6435    3.5071    0.0000 N   0  0
   -3.9300   -0.2056    0.0000 Cl  0  0
  1  2  1  0
  2  3  1  0
  1  4  2  0
  1  5  1  0
  6  7  1  0
  7  8  1  0
  8  9  1  0
  9 10  1  0
 10 11  1  0
  6 11  1  0
  3  6  1  0
 12 13  2  0
 13 14  1  0
 14 15  2  0
 15 16  1  0
 16 17  2  0
 17 18  1  0
 18 19  2  0
 19 20  1  0
 20 21  2  0
 12 21  1  0
 16 21  1  0
 23 24  1  0
 22 23  1  0
 19 22  1  0
 25 26  3  0
 14 25  1  0
 27 28  1  0
 28 29  1  0
 29 30  2  0
 30 31  1  0
 31 32  2  0
 32 33  1  0
 28 33  2  0
 34 35  1  0
 36 37  1  0
 37 38  2  0
 38 39  1  0
 39 40  2  0
 40 41  1  0
 36 41  2  0
 35 36  1  0
 31 34  1  0
 30 42  1  0
 15 27  1  0
  5 18  1  0
M  END
> <chembl_id>
CHEMBL2031312

$$$$

  SciTegic09081514162D

 40 44  0  0  0  0            999 V2000
    1.2990   -0.7500    0.0000 N   0  0
    1.2990    0.7500    0.0000 C   0  0
    0.0000    1.5000    0.0000 N   0  0
   -1.2990    0.7500    0.0000 C   0  0
   -1.2990   -0.7500    0.0000 C   0  0
    0.0000   -1.5000    0.0000 C   0  0
   -2.5973    1.5031    0.0000 O   0  0
    2.5972    1.5031    0.0000 N   0  0
    2.5951    3.0039    0.0000 C   0  0
   -3.8990    0.7562    0.0000 C   0  0
   -5.1976    1.5069    0.0000 C   0  0
   -6.4972    0.7578    0.0000 C   0  0
   -6.4981   -0.7422    0.0000 C   0  0
   -5.1996   -1.4931    0.0000 C   0  0
   -3.9001   -0.7439    0.0000 C   0  0
    3.8915    3.7585    0.0000 C   0  0
    3.8863    5.2585    0.0000 C   0  0
    2.5847    6.0040    0.0000 C   0  0
    1.2883    5.2495    0.0000 C   0  0
    1.2934    3.7495    0.0000 C   0  0
    2.5795    7.5047    0.0000 N   0  0
    3.8747    8.2614    0.0000 C   0  0
    3.8671    9.7614    0.0000 C   0  0
    2.5643   10.5048    0.0000 N   0  0
    1.2691    9.7483    0.0000 C   0  0
    1.2767    8.2483    0.0000 C   0  0
   -2.3383   -1.3500    0.0000 Cl  0  0
   -5.1975   -2.9939    0.0000 N   0  0
   -3.8972   -3.7433    0.0000 C   0  0
   -3.8950   -5.2441    0.0000 C   0  0
   -2.8586   -3.1422    0.0000 O   0  0
   -2.5947   -5.9935    0.0000 C   0  0
    2.5583   11.7048    0.0000 C   0  0
    5.1954    3.0153    0.0000 O   0  0
    6.2317    3.6204    0.0000 C   0  0
   -5.1940   -5.9960    0.0000 C   0  0
   -6.2326   -6.5971    0.0000 N   0  0
   -2.5926   -7.4944    0.0000 C   0  0
   -1.8435   -8.7025    0.0000 C   0  0
   -3.3435   -8.7014    0.0000 C   0  0
  1  2  2  0
  2  3  1  0
  3  4  2  0
  4  5  1  0
  5  6  2  0
  6  1  1  0
  4  7  1  0
  2  8  1  0
  8  9  1  0
  7 10  1  0
 10 11  2  0
 11 12  1  0
 12 13  2  0
 13 14  1  0
 14 15  2  0
 15 10  1  0
  9 16  2  0
 16 17  1  0
 17 18  2  0
 18 19  1  0
 19 20  2  0
 20  9  1  0
 21 22  1  0
 22 23  1  0
 23 24  1  0
 24 25  1  0
 25 26  1  0
 26 21  1  0
 18 21  1  0
  5 27  1  0
 14 28  1  0
 28 29  1  0
 29 30  1  0
 29 31  2  0
 30 32  2  0
 24 33  1  0
 16 34  1  0
 34 35  1  0
 30 36  1  0
 36 37  3  0
 32 38  1  0
 39 38  1  0
 40 39  1  0
 38 40  1  0
M  END
> <chembl_id>
CHEMBL3425664

$$$$

  SciTegic12201616162D

 31 34  0  0  0  0            999 V2000
    3.8942   -1.4964    0.0000 N   0  0
    5.1929   -0.7441    0.0000 C   0  0
    5.1908    0.4559    0.0000 S   0  0
    6.4942   -1.4919    0.0000 N   0  0
    7.7928   -0.7396    0.0000 C   0  0
    9.0941   -1.4873    0.0000 C   0  0
   10.3928   -0.7351    0.0000 C   0  0
   14.2923   -2.9828    0.0000 O   0  0
   14.2923   -1.4828    0.0000 C   0  0
   12.9932   -0.7328    0.0000 C   0  0
   11.6941   -1.4828    0.0000 N   0  0
   11.6942   -2.9829    0.0000 C   0  0
   12.9933   -3.7328    0.0000 C   0  0
   -1.2964    1.4973    0.0000 N   0  0
   -2.6111    0.7486    0.0000 C   0  0
   -2.6111   -0.7486    0.0000 N   0  0
   -1.2964   -1.4973    0.0000 C   0  0
    0.0000   -0.7486    0.0000 C   0  0
    1.2964   -1.4973    0.0000 C   0  0
    2.5929   -0.7486    0.0000 C   0  0
    2.5929    0.7486    0.0000 C   0  0
    1.2964    1.4973    0.0000 C   0  0
    0.0000    0.7486    0.0000 C   0  0
   -1.2907   -2.9981    0.0000 N   0  0
   -2.5870   -3.7544    0.0000 C   0  0
   -2.5835   -5.2544    0.0000 C   0  0
   -3.8807   -6.0076    0.0000 C   0  0
   -5.1815   -5.2608    0.0000 C   0  0
   -5.1852   -3.7608    0.0000 C   0  0
   -3.8880   -3.0076    0.0000 C   0  0
   -3.8777   -7.2076    0.0000 Br  0  0
  1  2  1  0
  2  3  2  0
  2  4  1  0
  5  6  1  0
  6  7  1  0
  8  9  1  0
  9 10  1  0
 10 11  1  0
 11 12  1  0
 12 13  1  0
  8 13  1  0
  7 11  1  0
  4  5  1  0
 14 15  1  0
 15 16  2  0
 16 17  1  0
 17 18  2  0
 18 19  1  0
 19 20  2  0
 20 21  1  0
 21 22  2  0
 22 23  1  0
 14 23  2  0
 18 23  1  0
 25 26  1  0
 26 27  2  0
 27 28  1  0
 28 29  2  0
 29 30  1  0
 25 30  2  0
 27 31  1  0
 24 25  1  0
 17 24  1  0
  1 20  1  0
M  END
> <chembl_id>
CHEMBL3815115

$$$$

  SciTegic12131613492D

 26 30  0  0  0  0            999 V2000
    0.8955    2.0810    0.0000 C   0  0
    1.7138    1.2033    0.0000 C   0  0
    2.8908    1.4370    0.0000 C   0  0
   -1.0028    1.5132    0.0000 N   0  0
   -2.3155    0.7475    0.0000 C   0  0
   -2.3155   -0.7475    0.0000 N   0  0
   -1.0028   -1.5132    0.0000 C   0  0
    0.2917    0.7475    0.0000 C   0  0
    0.2917   -0.7475    0.0000 C   0  0
    1.7138   -1.2033    0.0000 C   0  0
    2.5889    0.0182    0.0000 O   0  0
   -3.6168    1.4950    0.0000 C   0  0
   -4.9669    0.8708    0.0000 C   0  0
   -5.9732    1.9832    0.0000 N   0  0
   -5.2262    3.2840    0.0000 N   0  0
   -3.7582    2.9755    0.0000 C   0  0
   -0.9971   -3.0138    0.0000 O   0  0
   -2.2935   -3.7700    0.0000 C   0  0
   -4.6304   -4.2656    0.0000 N   0  0
   -3.6203   -3.1531    0.0000 N   0  0
   -3.8857   -5.5600    0.0000 C   0  0
   -2.4241   -5.2456    0.0000 C   0  0
   -1.4032   -6.3500    0.0000 C   0  0
   -1.8757   -7.7944    0.0000 C   0  0
   -3.3373   -8.1089    0.0000 C   0  0
   -4.3620   -6.9866    0.0000 C   0  0
  2  1  1  0
  3  2  1  0
  8  4  1  0
  4  5  2  0
  5  6  1  0
  6  7  2  0
  7  9  1  0
  8  9  2  0
  9 10  1  0
 10 11  1  0
 11  2  1  0
  2  8  1  0
  5 12  1  0
 12 13  2  0
 13 14  1  0
 14 15  1  0
 15 16  2  0
 16 12  1  0
  7 17  1  0
 17 18  1  0
 18 22  1  0
 21 19  1  0
 19 20  1  0
 20 18  2  0
 21 22  2  0
 22 23  1  0
 23 24  2  0
 24 25  1  0
 25 26  2  0
 26 21  1  0
M  END
> <chembl_id>
CHEMBL3759442

$$$$

  SciTegic12091611192D

 29 32  0  0  0  0            999 V2000
   -3.6217    1.4865    0.0000 N   0  0
   -7.5133    0.6990    0.0000 C   0  0
   -6.2219    1.4621    0.0000 N   0  0
   -4.9153    0.7255    0.0000 C   0  0
   -4.9001   -0.7745    0.0000 C   0  0
   -6.1914   -1.5377    0.0000 C   0  0
   -7.4980   -0.8010    0.0000 N   0  0
   -8.8205    1.4361    0.0000 N   0  0
   -8.8383    2.9360    0.0000 C   0  0
  -10.1461    3.6707    0.0000 C   0  0
  -11.4362    2.9055    0.0000 C   0  0
  -11.4185    1.4056    0.0000 C   0  0
  -10.1108    0.6709    0.0000 C   0  0
  -12.7462    3.6378    0.0000 O   0  0
  -13.7774    3.0242    0.0000 C   0  0
   -1.0028   -1.5132    0.0000 C   0  0
    0.2917   -0.7475    0.0000 C   0  0
    0.2917    0.7475    0.0000 C   0  0
   -1.0028    1.5132    0.0000 C   0  0
   -2.3155    0.7475    0.0000 C   0  0
   -2.3155   -0.7475    0.0000 N   0  0
    2.5889    0.0182    0.0000 C   0  0
    1.7138   -1.2033    0.0000 N   0  0
    1.7138    1.2033    0.0000 N   0  0
    2.1812    2.6271    0.0000 C   0  0
    3.6500    2.9355    0.0000 C   0  0
    4.0244    4.0756    0.0000 F   0  0
    4.4505    2.0415    0.0000 F   0  0
    4.8245    3.1816    0.0000 F   0  0
  2  3  1  0
  3  4  2  0
  4  5  1  0
  5  6  2  0
  6  7  1  0
  2  7  2  0
  8  9  1  0
  9 10  1  0
 10 11  1  0
 11 12  1  0
 12 13  1  0
  8 13  1  0
 14 15  1  0
 11 14  1  0
  2  8  1  0
  1  4  1  0
 16 17  1  0
 17 18  2  0
 18 19  1  0
 19 20  2  0
 20 21  1  0
 16 21  2  0
 22 23  2  0
 22 24  1  0
 17 23  1  0
 18 24  1  0
  1 20  1  0
 24 25  1  0
 25 26  1  0
 26 27  1  0
 26 28  1  0
 26 29  1  0
M  END
> <chembl_id>
CHEMBL3736254

$$$$

  SciTegic12191611242D

 31 34  0  0  0  0            999 V2000
   -8.4598    0.3211    0.0000 C   0  0
   -7.2652    0.2078    0.0000 N   0  0
   -6.5020   -1.0835    0.0000 N   0  0
   -5.0380   -0.7567    0.0000 C   0  0
   -6.2729    1.3327    0.0000 C   0  0
   -4.9153    0.7255    0.0000 C   0  0
   -3.6217    1.4865    0.0000 N   0  0
   -2.3155    0.7475    0.0000 C   0  0
   -1.0028    1.5132    0.0000 N   0  0
    0.2917    0.7475    0.0000 C   0  0
    0.2917   -0.7475    0.0000 C   0  0
    1.7138   -1.2033    0.0000 C   0  0
    2.0907   -2.3426    0.0000 Cl  0  0
    2.5889    0.0182    0.0000 C   0  0
    1.7138    1.2033    0.0000 N   0  0
   -1.0028   -1.5132    0.0000 C   0  0
   -0.9971   -3.0138    0.0000 O   0  0
   -2.2935   -3.7700    0.0000 C   0  0
   -2.2878   -5.2708    0.0000 C   0  0  1  0  0  0
   -1.0692   -6.1235    0.0000 C   0  0
   -1.5244   -7.5527    0.0000 N   0  0
   -0.6391   -8.7615    0.0000 C   0  0
   -1.2435  -10.1353    0.0000 C   0  0
   -0.5345  -11.1034    0.0000 C   0  0
    0.5538   -8.6312    0.0000 O   0  0
   -3.0244   -7.5615    0.0000 C   0  0
   -3.4962   -6.1377    0.0000 C   0  0  2  0  0  0
   -4.9212   -5.6751    0.0000 C   0  0
   -6.0370   -6.6789    0.0000 O   0  0
   -7.1783   -6.3084    0.0000 C   0  0
   -2.3155   -0.7475    0.0000 N   0  0
  1  2  1  0
  2  3  1  0
  3  4  2  0
  2  5  1  0
  5  6  2  0
  4  6  1  0
  6  7  1  0
  7  8  1  0
  8  9  2  0
  9 10  1  0
 10 11  2  0
 11 12  1  0
 12 13  1  0
 12 14  2  0
 14 15  1  0
 10 15  1  0
 11 16  1  0
 16 17  1  0
 17 18  1  0
 19 18  1  1
 19 20  1  0
 20 21  1  0
 21 22  1  0
 22 23  1  0
 23 24  2  0
 22 25  2  0
 21 26  1  0
 26 27  1  0
 19 27  1  0
 27 28  1  6
 28 29  1  0
 29 30  1  0
 16 31  2  0
  8 31  1  0
M  END
> <chembl_id>
CHEMBL3786523

$$$$

  SciTegic04091414352D

 36 39  0  0  0  0            999 V2000
   13.2794   -7.4951    0.0000 N   0  0
   12.5592   -7.8823    0.0000 C   0  0
   12.5344   -8.6996    0.0000 O   0  0
   11.8638   -7.4522    0.0000 N   0  0
   13.9748   -7.9253    0.0000 C   0  0
   13.3042   -6.6778    0.0000 C   0  0
   14.0244   -6.2907    0.0000 C   0  0
   14.0492   -5.4734    0.0000 C   0  0
   14.7694   -5.0862    0.0000 N   0  0
   14.7942   -4.2689    0.0000 C   0  0
   15.4648   -5.5163    0.0000 C   0  0
    8.9831   -9.0009    0.0000 N   0  0
    8.2877   -8.5708    0.0000 C   0  0
    8.3125   -7.7535    0.0000 N   0  0
    9.0326   -7.3663    0.0000 C   0  0
    9.7280   -7.7964    0.0000 C   0  0
   10.4482   -7.4092    0.0000 C   0  0
   11.1436   -7.8394    0.0000 C   0  0
   11.1188   -8.6567    0.0000 C   0  0
   10.3986   -9.0438    0.0000 C   0  0
    9.7032   -8.6137    0.0000 C   0  0
   11.8142   -9.0868    0.0000 O   0  0
   11.3426  -11.1493    0.0000 O   0  0
   11.1137  -10.3644    0.0000 C   0  0
   11.7894   -9.9041    0.0000 C   0  0  2  0  0  0
   12.4361  -10.4045    0.0000 C   0  0
   12.1599  -11.1741    0.0000 C   0  0
    9.0574   -6.5490    0.0000 N   0  0
    8.3620   -6.1189    0.0000 C   0  0
    7.6418   -6.5061    0.0000 C   0  0
    6.9465   -6.0759    0.0000 C   0  0
    6.9712   -5.2586    0.0000 C   0  0
    7.6914   -4.8715    0.0000 C   0  0
    8.3868   -5.3016    0.0000 C   0  0
    6.2759   -4.8285    0.0000 F   0  0
    6.2263   -6.4631    0.0000 Cl  0  0
  1  2  1  0
  2  3  2  0
  2  4  1  0
  1  5  1  0
  6  7  1  0
  7  8  1  0
  9 10  1  0
  9 11  1  0
  8  9  1  0
  1  6  1  0
 12 13  1  0
 13 14  2  0
 14 15  1  0
 15 16  2  0
 16 17  1  0
 17 18  2  0
 18 19  1  0
 19 20  2  0
 20 21  1  0
 12 21  2  0
 16 21  1  0
 23 24  1  0
 24 25  1  0
 25 26  1  0
 26 27  1  0
 23 27  1  0
 25 22  1  1
 19 22  1  0
 29 30  1  0
 30 31  2  0
 31 32  1  0
 32 33  2  0
 33 34  1  0
 29 34  2  0
 32 35  1  0
 31 36  1  0
 28 29  1  0
 15 28  1  0
  4 18  1  0
M  END
> <chembl_id>
CHEMBL3092317

$$$$

  SciTegic04191617032D

 23 25  0  0  0  0            999 V2000
    1.2990   -0.7500    0.0000 C   0  0
    1.2990    0.7500    0.0000 C   0  0
    0.0000    1.5000    0.0000 N   0  0
   -1.2990    0.7500    0.0000 C   0  0
   -1.2990   -0.7500    0.0000 N   0  0
    0.0000   -1.5000    0.0000 C   0  0
   -2.5987    1.5004    0.0000 C   0  0
   -2.6012    3.0004    0.0000 C   0  0
   -3.9015    3.7484    0.0000 C   0  0
   -5.1993    2.9963    0.0000 C   0  0
   -5.1969    1.4963    0.0000 C   0  0
   -3.8967    0.7484    0.0000 C   0  0
    0.0031   -3.0008    0.0000 N   0  0
    1.3039   -3.7494    0.0000 C   0  0
    1.4469   -5.2297    0.0000 C   0  0
    2.9152   -5.5365    0.0000 C   0  0
    3.6607   -4.2349    0.0000 N   0  0
    2.6532   -3.1236    0.0000 N   0  0
    2.5972    1.5031    0.0000 N   0  0
    2.5951    3.0039    0.0000 C   0  0
    3.8933    3.7570    0.0000 C   0  0
    1.5548    3.6021    0.0000 O   0  0
    3.8916    4.9570    0.0000 C   0  0
  1  2  2  0
  2  3  1  0
  3  4  2  0
  4  5  1  0
  5  6  2  0
  6  1  1  0
  4  7  1  0
  7  8  2  0
  8  9  1  0
  9 10  2  0
 10 11  1  0
 11 12  2  0
 12  7  1  0
  6 13  1  0
 13 14  1  0
 14 15  1  0
 15 16  2  0
 16 17  1  0
 17 18  1  0
 18 14  2  0
  2 19  1  0
 19 20  1  0
 20 21  1  0
 20 22  2  0
 21 23  2  0
M  END
> <chembl_id>
CHEMBL3604917

$$$$

  SciTegic09081514162D

 46 50  0  0  0  0            999 V2000
    1.2990   -0.7500    0.0000 N   0  0
    1.2990    0.7500    0.0000 C   0  0
    0.0000    1.5000    0.0000 N   0  0
   -1.2990    0.7500    0.0000 C   0  0
   -1.2990   -0.7500    0.0000 C   0  0
    0.0000   -1.5000    0.0000 C   0  0
   -2.5973    1.5031    0.0000 O   0  0
    2.5972    1.5031    0.0000 N   0  0
    2.5951    3.0039    0.0000 C   0  0
   -3.8990    0.7562    0.0000 C   0  0
   -5.1976    1.5069    0.0000 C   0  0
   -6.4972    0.7578    0.0000 C   0  0
   -6.4981   -0.7422    0.0000 C   0  0
   -5.1996   -1.4931    0.0000 C   0  0
   -3.9001   -0.7439    0.0000 C   0  0
    3.8915    3.7585    0.0000 C   0  0
    3.8863    5.2585    0.0000 C   0  0
    2.5847    6.0040    0.0000 C   0  0
    1.2883    5.2495    0.0000 C   0  0
    1.2934    3.7495    0.0000 C   0  0
    2.5795    7.5047    0.0000 N   0  0
    3.8747    8.2614    0.0000 C   0  0
    3.8671    9.7614    0.0000 C   0  0
    2.5643   10.5048    0.0000 N   0  0
    1.2691    9.7483    0.0000 C   0  0
    1.2767    8.2483    0.0000 C   0  0
   -2.3383   -1.3500    0.0000 Cl  0  0
   -5.1975   -2.9939    0.0000 N   0  0
   -3.8972   -3.7433    0.0000 C   0  0
   -3.8950   -5.2441    0.0000 C   0  0
   -2.8586   -3.1422    0.0000 O   0  0
   -2.5947   -5.9935    0.0000 C   0  0
    2.5583   11.7048    0.0000 C   0  0
    5.1954    3.0153    0.0000 O   0  0
    6.2317    3.6204    0.0000 C   0  0
   -5.1940   -5.9960    0.0000 C   0  0
   -6.2326   -6.5971    0.0000 N   0  0
   -2.5926   -7.4944    0.0000 C   0  0
   -1.2941   -8.2453    0.0000 C   0  0
   -1.2950   -9.7453    0.0000 C   0  0
   -2.5945  -10.4944    0.0000 C   0  0
   -3.8931   -9.7436    0.0000 C   0  0
   -3.8921   -8.2436    0.0000 C   0  0
   -2.5985  -11.9953    0.0000 N   0  0
   -3.6390  -12.5931    0.0000 C   0  0
   -1.5607  -12.5977    0.0000 C   0  0
  1  2  2  0
  2  3  1  0
  3  4  2  0
  4  5  1  0
  5  6  2  0
  6  1  1  0
  4  7  1  0
  2  8  1  0
  8  9  1  0
  7 10  1  0
 10 11  2  0
 11 12  1  0
 12 13  2  0
 13 14  1  0
 14 15  2  0
 15 10  1  0
  9 16  2  0
 16 17  1  0
 17 18  2  0
 18 19  1  0
 19 20  2  0
 20  9  1  0
 21 22  1  0
 22 23  1  0
 23 24  1  0
 24 25  1  0
 25 26  1  0
 26 21  1  0
 18 21  1  0
  5 27  1  0
 14 28  1  0
 28 29  1  0
 29 30  1  0
 29 31  2  0
 30 32  2  0
 24 33  1  0
 16 34  1  0
 34 35  1  0
 30 36  1  0
 36 37  3  0
 32 38  1  0
 38 39  2  0
 39 40  1  0
 40 41  2  0
 41 42  1  0
 42 43  2  0
 43 38  1  0
 41 44  1  0
 44 45  1  0
 44 46  1  0
M  END
> <chembl_id>
CHEMBL3425659

$$$$

  SciTegic12171313022D

 37 41  0  0  0  0            999 V2000
   13.2552  -13.0585    0.0000 C   0  0
   13.2541  -13.8781    0.0000 C   0  0
   13.9621  -14.2870    0.0000 N   0  0
   14.6718  -13.8776    0.0000 C   0  0
   14.6690  -13.0549    0.0000 N   0  0
   13.9604  -12.6497    0.0000 C   0  0
   15.3802  -14.2851    0.0000 N   0  0
   16.0872  -13.8754    0.0000 C   0  0
   16.7922  -14.2833    0.0000 C   0  0
   17.4988  -13.8743    0.0000 C   0  0
   17.4980  -13.0562    0.0000 C   0  0
   16.7847  -12.6489    0.0000 C   0  0
   16.0810  -13.0602    0.0000 C   0  0
   16.7805  -11.8317    0.0000 N   0  0
   12.5474  -12.6501    0.0000 Cl  0  0
   16.7923  -15.1005    0.0000 O   0  0
   16.0847  -15.5091    0.0000 C   0  0
   16.0707  -11.4267    0.0000 C   0  0
   16.0665  -10.6095    0.0000 C   0  0
   15.3651  -11.8389    0.0000 O   0  0
   16.7722  -10.1973    0.0000 C   0  0
   18.2045  -12.6455    0.0000 N   0  0
   18.9077  -13.0554    0.0000 C   0  0
   19.6121  -12.6482    0.0000 C   0  0
   19.6140  -11.8307    0.0000 N   0  0
   18.9053  -11.4220    0.0000 C   0  0
   18.1947  -11.8308    0.0000 C   0  0
   20.3221  -11.4227    0.0000 C   0  0
   13.9521  -11.8316    0.0000 C   0  0
   14.6117  -11.3492    0.0000 C   0  0
   14.3569  -10.5728    0.0000 N   0  0
   13.2896  -11.3532    0.0000 C   0  0
   13.5394  -10.5784    0.0000 C   0  0
   12.9939   -9.9766    0.0000 C   0  0
   12.1984  -10.1485    0.0000 C   0  0
   11.9513  -10.9274    0.0000 C   0  0
   12.4985  -11.5258    0.0000 C   0  0
  1  2  2  0
  2  3  1  0
  3  4  2  0
  4  5  1  0
  5  6  2  0
  6  1  1  0
  4  7  1  0
  7  8  1  0
  8  9  2  0
  9 10  1  0
 10 11  2  0
 11 12  1  0
 12 13  2  0
 13  8  1  0
 12 14  1  0
  1 15  1  0
  9 16  1  0
 16 17  1  0
 14 18  1  0
 18 19  1  0
 18 20  2  0
 19 21  2  0
 11 22  1  0
 22 23  1  0
 22 27  1  0
 23 24  1  0
 24 25  1  0
 25 26  1  0
 26 27  1  0
 25 28  1  0
 29 30  2  0
 30 31  1  0
 31 33  1  0
 32 29  1  0
  6 29  1  0
 32 33  2  0
 33 34  1  0
 34 35  2  0
 35 36  1  0
 36 37  2  0
 37 32  1  0
M  END
> <chembl_id>
CHEMBL2426278

$$$$

  SciTegic12161615052D

 30 33  0  0  0  0            999 V2000
    1.2990   -0.7500    0.0000 C   0  0
    1.2990    0.7500    0.0000 C   0  0
    0.0000    1.5000    0.0000 C   0  0
   -1.2990    0.7500    0.0000 C   0  0
   -1.2990   -0.7500    0.0000 C   0  0
    0.0000   -1.5000    0.0000 N   0  0
    2.5972    1.5031    0.0000 C   0  0
    3.6375    0.9049    0.0000 O   0  0
    2.5951    3.0039    0.0000 N   0  0
    2.3383   -1.3500    0.0000 O   0  0
    3.8933    3.7570    0.0000 C   0  0
    3.8933    5.2571    0.0000 C   0  0
    5.1924    6.0071    0.0000 C   0  0
    6.4914    5.2571    0.0000 C   0  0
    6.4915    3.7571    0.0000 C   0  0
    5.1925    3.0071    0.0000 C   0  0
    7.7911    6.0075    0.0000 N   0  0
    7.7935    7.5076    0.0000 C   0  0
    9.0937    8.2556    0.0000 C   0  0
   10.3916    7.5036    0.0000 N   0  0
   10.3893    6.0036    0.0000 C   0  0
    9.0891    5.2556    0.0000 C   0  0
   11.4318    8.1019    0.0000 C   0  0
   -0.0031    3.0008    0.0000 N   0  0
   -1.3039    3.7494    0.0000 C   0  0
   -1.3092    5.2494    0.0000 C   0  0
   -2.6108    5.9949    0.0000 C   0  0
   -3.9073    5.2404    0.0000 N   0  0
   -3.9021    3.7404    0.0000 C   0  0
   -2.6005    2.9949    0.0000 N   0  0
  1  2  1  0
  2  3  2  0
  3  4  1  0
  4  5  2  0
  5  6  1  0
  1  6  1  0
  7  8  2  0
  7  9  1  0
  2  7  1  0
  1 10  2  0
 11 12  1  0
 12 13  2  0
 13 14  1  0
 14 15  2  0
 15 16  1  0
 11 16  2  0
 17 18  1  0
 18 19  1  0
 19 20  1  0
 20 21  1  0
 21 22  1  0
 17 22  1  0
 20 23  1  0
 14 17  1  0
  9 11  1  0
  3 24  1  0
 24 25  1  0
 25 26  2  0
 26 27  1  0
 27 28  2  0
 28 29  1  0
 29 30  2  0
 30 25  1  0
M  END
> <chembl_id>
CHEMBL3781344

$$$$

  SciTegic11131815182D

 31 35  0  0  0  0            999 V2000
   -2.1217   -8.8738    0.0000 C   0  0
   -1.6281   -7.7800    0.0000 C   0  0
   -0.1593   -7.4755    0.0000 N   0  0
   -0.0140   -5.9954    0.0000 N   0  0
   -1.3622   -5.3676    0.0000 C   0  0
   -2.3715   -6.4772    0.0000 C   0  0
   -3.8604   -6.3100    0.0000 C   0  0
   -4.4620   -4.9350    0.0000 N   0  0
   -5.8371   -4.4328    0.0000 C   0  0
   -5.2875   -3.0371    0.0000 C   0  0
   -5.7662   -1.9367    0.0000 O   0  0
   -3.8918   -3.5866    0.0000 C   0  0
    1.2883   -5.2495    0.0000 C   0  0
    2.5847   -6.0040    0.0000 C   0  0
    3.8864   -5.2585    0.0000 C   0  0
    3.8915   -3.7585    0.0000 N   0  0
    2.5951   -3.0039    0.0000 C   0  0
    2.5973   -1.5031    0.0000 N   0  0
    1.2990   -0.7500    0.0000 C   0  0
    1.2990    0.7500    0.0000 C   0  0
    0.0000    1.5000    0.0000 C   0  0
   -1.2990    0.7500    0.0000 C   0  0
   -1.2990   -0.7500    0.0000 C   0  0
    0.0000   -1.5000    0.0000 C   0  0
   -2.7248   -1.2135    0.0000 C   0  0
   -3.0955   -2.3548    0.0000 Cl  0  0
   -3.6065    0.0000    0.0000 C   0  0
   -4.8065    0.0000    0.0000 C   0  0
   -2.7248    1.2135    0.0000 N   0  0
   -3.0955    2.3548    0.0000 C   0  0
    1.2935   -3.7495    0.0000 N   0  0
  1  2  1  0
  2  3  2  0
  3  4  1  0
  4  5  1  0
  5  6  2  0
  6  2  1  0
  6  7  1  0
  7  8  1  0
  8  9  1  0
  9 10  1  0
 10 11  1  0
 10 12  1  0
 12  8  1  0
  4 13  1  0
 13 14  2  0
 14 15  1  0
 15 16  2  0
 16 17  1  0
 17 18  1  0
 18 19  1  0
 19 20  2  0
 20 21  1  0
 21 22  2  0
 22 23  1  0
 23 24  2  0
 24 19  1  0
 23 25  1  0
 25 26  1  0
 25 27  2  0
 27 28  1  0
 27 29  1  0
 29 22  1  0
 29 30  1  0
 17 31  2  0
 31 13  1  0
M  END
> <chembl_id>
CHEMBL3622956

$$$$

  SciTegic12091614152D

 35 37  0  0  0  0            999 V2000
    1.2990   -0.7500    0.0000 C   0  0
    1.2990    0.7500    0.0000 C   0  0
    0.0000    1.5000    0.0000 C   0  0
   -1.2990    0.7500    0.0000 C   0  0
   -1.2990   -0.7500    0.0000 C   0  0
    0.0000   -1.5000    0.0000 C   0  0
    2.5973   -1.5031    0.0000 N   0  0
   -0.0031    3.0008    0.0000 N   0  0
    1.2883   -5.2495    0.0000 C   0  0
    1.2935   -3.7495    0.0000 N   0  0
    2.5951   -3.0039    0.0000 C   0  0
    3.8915   -3.7585    0.0000 C   0  0
    3.8864   -5.2585    0.0000 C   0  0
    2.5847   -6.0040    0.0000 N   0  0
   -0.0125   -5.9981    0.0000 N   0  0
   -0.0155   -7.4989    0.0000 N   0  0
   -1.3163   -8.2475    0.0000 C   0  0
   -1.3194   -9.7484    0.0000 C   0  0
    4.9329   -3.1621    0.0000 Cl  0  0
   -1.3039    3.7494    0.0000 C   0  0
   -2.3421    3.1476    0.0000 O   0  0
   -1.3070    5.2502    0.0000 C   0  0
   -2.6078    5.9988    0.0000 C   0  0
   -2.6109    7.4996    0.0000 C   0  0
   -3.9118    8.2481    0.0000 N   0  0
   -3.9142    9.4481    0.0000 C   0  0
   -4.9499    7.6463    0.0000 C   0  0
   -0.0203  -10.4984    0.0000 C   0  0
   -0.0203  -11.9984    0.0000 C   0  0
   -1.3193  -12.7484    0.0000 C   0  0
   -2.6184  -11.9985    0.0000 C   0  0
   -2.6184  -10.4985    0.0000 C   0  0
   -1.3193  -13.9484    0.0000 F   0  0
   -2.3545   -7.6458    0.0000 C   0  0
   -3.6577   -9.8985    0.0000 F   0  0
  1  2  1  0
  2  3  2  0
  3  4  1  0
  4  5  2  0
  5  6  1  0
  1  6  2  0
  1  7  1  0
  3  8  1  0
  9 10  1  0
 10 11  2  0
 11 12  1  0
 12 13  2  0
 13 14  1  0
  9 14  2  0
 15 16  1  0
 17 18  1  0
 16 17  2  0
  9 15  1  0
 12 19  1  0
  7 11  1  0
  8 20  1  0
 20 21  2  0
 20 22  1  0
 22 23  2  0
 23 24  1  0
 24 25  1  0
 25 26  1  0
 25 27  1  0
 18 28  2  0
 28 29  1  0
 29 30  2  0
 30 31  1  0
 31 32  2  0
 32 18  1  0
 30 33  1  0
 17 34  1  0
 32 35  1  0
M  END
> <chembl_id>
CHEMBL3740907

$$$$

  SciTegic05221516342D

 34 37  0  0  0  0            999 V2000
   20.0723   -4.8731    0.0000 C   0  0
   20.7814   -4.4645    0.0000 C   0  0
   20.7814   -3.6473    0.0000 C   0  0
   21.4864   -3.2387    0.0000 C   0  0
   20.0723   -5.6902    0.0000 O   0  0
   19.3633   -4.4645    0.0000 N   0  0
   22.1955   -3.6473    0.0000 N   0  0
   22.9046   -3.2387    0.0000 C   0  0
   23.6095   -3.6473    0.0000 C   0  0
   23.6095   -4.4645    0.0000 C   0  0
   22.9046   -4.8731    0.0000 C   0  0
   22.1955   -4.4645    0.0000 C   0  0
   21.4864   -4.8731    0.0000 F   0  0
   16.5352   -6.0988    0.0000 N   0  0
   15.8261   -5.6902    0.0000 C   0  0
   15.8261   -4.8731    0.0000 N   0  0
   16.5352   -4.4645    0.0000 C   0  0
   17.2401   -4.8731    0.0000 C   0  0
   17.9492   -4.4645    0.0000 C   0  0
   18.6583   -4.8731    0.0000 C   0  0
   18.6583   -5.6902    0.0000 C   0  0
   17.9492   -6.0988    0.0000 C   0  0
   17.2401   -5.6902    0.0000 C   0  0
   19.3633   -6.0988    0.0000 O   0  0
   19.3633   -6.9160    0.0000 C   0  0
   16.5352   -3.6473    0.0000 N   0  0
   15.8261   -3.2387    0.0000 C   0  0
   15.1211   -3.6473    0.0000 C   0  0
   14.4120   -3.2387    0.0000 C   0  0
   14.4120   -2.4215    0.0000 C   0  0
   15.1211   -2.0129    0.0000 C   0  0
   15.8261   -2.4215    0.0000 C   0  0
   13.7029   -2.0129    0.0000 F   0  0
   13.7029   -3.6473    0.0000 Cl  0  0
  1  2  1  0
  2  3  2  0
  3  4  1  0
  1  5  2  0
  1  6  1  0
  7  8  1  0
  8  9  1  0
  9 10  1  0
 10 11  1  0
 11 12  1  0
  7 12  1  0
  4  7  1  0
  2 13  1  0
 14 15  1  0
 15 16  2  0
 16 17  1  0
 17 18  2  0
 18 19  1  0
 19 20  2  0
 20 21  1  0
 21 22  2  0
 22 23  1  0
 14 23  2  0
 18 23  1  0
 24 25  1  0
 21 24  1  0
 27 28  1  0
 28 29  2  0
 29 30  1  0
 30 31  2  0
 31 32  1  0
 27 32  2  0
 30 33  1  0
 29 34  1  0
 26 27  1  0
 17 26  1  0
  6 20  1  0
M  END
> <chembl_id>
CHEMBL3357635

$$$$

  SciTegic09081514162D

 42 46  0  0  0  0            999 V2000
    1.2990   -0.7500    0.0000 N   0  0
    1.2990    0.7500    0.0000 C   0  0
    0.0000    1.5000    0.0000 N   0  0
   -1.2990    0.7500    0.0000 C   0  0
   -1.2990   -0.7500    0.0000 C   0  0
    0.0000   -1.5000    0.0000 C   0  0
   -2.5973    1.5031    0.0000 O   0  0
    2.5972    1.5031    0.0000 N   0  0
    2.5951    3.0039    0.0000 C   0  0
   -3.8990    0.7562    0.0000 C   0  0
   -5.1976    1.5069    0.0000 C   0  0
   -6.4972    0.7578    0.0000 C   0  0
   -6.4981   -0.7422    0.0000 C   0  0
   -5.1996   -1.4931    0.0000 C   0  0
   -3.9001   -0.7439    0.0000 C   0  0
    3.8915    3.7585    0.0000 C   0  0
    3.8863    5.2585    0.0000 C   0  0
    2.5847    6.0040    0.0000 C   0  0
    1.2883    5.2495    0.0000 C   0  0
    1.2934    3.7495    0.0000 C   0  0
    2.5795    7.5047    0.0000 N   0  0
    3.8747    8.2614    0.0000 C   0  0
    3.8671    9.7614    0.0000 C   0  0
    2.5643   10.5048    0.0000 N   0  0
    1.2691    9.7483    0.0000 C   0  0
    1.2767    8.2483    0.0000 C   0  0
   -2.3383   -1.3500    0.0000 Cl  0  0
   -5.1975   -2.9939    0.0000 N   0  0
   -3.8972   -3.7433    0.0000 C   0  0
   -3.8950   -5.2441    0.0000 C   0  0
   -2.8586   -3.1422    0.0000 O   0  0
   -2.5947   -5.9935    0.0000 C   0  0
    2.5583   11.7048    0.0000 C   0  0
    5.1954    3.0153    0.0000 O   0  0
    6.2317    3.6204    0.0000 C   0  0
   -5.1940   -5.9960    0.0000 C   0  0
   -6.2326   -6.5971    0.0000 N   0  0
   -2.5926   -7.4944    0.0000 C   0  0
   -1.3796   -8.3550    0.0000 O   0  0
   -1.8441   -9.7812    0.0000 C   0  0
   -3.3441   -9.7803    0.0000 C   0  0
   -3.8067   -8.3534    0.0000 C   0  0
  1  2  2  0
  2  3  1  0
  3  4  2  0
  4  5  1  0
  5  6  2  0
  6  1  1  0
  4  7  1  0
  2  8  1  0
  8  9  1  0
  7 10  1  0
 10 11  2  0
 11 12  1  0
 12 13  2  0
 13 14  1  0
 14 15  2  0
 15 10  1  0
  9 16  2  0
 16 17  1  0
 17 18  2  0
 18 19  1  0
 19 20  2  0
 20  9  1  0
 21 22  1  0
 22 23  1  0
 23 24  1  0
 24 25  1  0
 25 26  1  0
 26 21  1  0
 18 21  1  0
  5 27  1  0
 14 28  1  0
 28 29  1  0
 29 30  1  0
 29 31  2  0
 30 32  2  0
 24 33  1  0
 16 34  1  0
 34 35  1  0
 30 36  1  0
 36 37  3  0
 32 38  1  0
 38 39  1  0
 39 40  1  0
 40 41  2  0
 41 42  1  0
 42 38  2  0
M  END
> <chembl_id>
CHEMBL3425662

$$$$

  SciTegic12231509382D

 45 50  0  0  0  0            999 V2000
    2.4069   -0.7541    0.0000 N   0  0
    2.4058   -1.5815    0.0000 C   0  0
    3.1205   -1.9944    0.0000 N   0  0
    3.1187   -0.3413    0.0000 C   0  0
    3.8342   -0.7505    0.0000 C   0  0
    3.8349   -1.5773    0.0000 C   0  0
    4.5502   -1.9883    0.0000 N   0  0
    5.2652   -1.5735    0.0000 C   0  0
    5.2605   -0.7435    0.0000 N   0  0
    4.5446   -0.3364    0.0000 C   0  0
    1.6909   -1.9935    0.0000 N   0  0
    4.5519   -2.8133    0.0000 C   0  0
    5.9813   -1.9833    0.0000 O   0  0
    5.9724   -0.3267    0.0000 C   0  0
    6.6894   -0.7349    0.0000 C   0  0
    6.6897   -1.5595    0.0000 C   0  0
    7.4059   -1.9675    0.0000 C   0  0
    8.1188   -1.5506    0.0000 C   0  0
    8.1111   -0.7213    0.0000 C   0  0
    7.3944   -0.3170    0.0000 C   0  0
    3.8357   -3.2233    0.0000 C   0  0
    3.8370   -4.0476    0.0000 C   0  0
    4.5529   -4.4594    0.0000 C   0  0
    5.2689   -4.0411    0.0000 C   0  0
    5.2640   -3.2182    0.0000 C   0  0
    1.6903   -2.8185    0.0000 C   0  0
    0.9754   -3.2288    0.0000 C   0  0
    0.9744   -4.0531    0.0000 C   0  0
    1.6891   -4.4669    0.0000 C   0  0
    2.4063   -4.0505    0.0000 C   0  0
    2.4038   -3.2277    0.0000 C   0  0
    1.6895   -5.2919    0.0000 N   0  0
    0.9748   -5.7055    0.0000 C   0  0
    0.9733   -6.5269    0.0000 C   0  0
    1.6862   -6.9428    0.0000 N   0  0
    2.4022   -6.5312    0.0000 C   0  0
    2.4055   -5.7036    0.0000 C   0  0
    5.9857   -4.4495    0.0000 N   0  0
    5.9903   -5.2745    0.0000 C   0  0
    6.7071   -5.6830    0.0000 C   0  0
    6.7117   -6.5080    0.0000 C   0  0
    5.2782   -5.6910    0.0000 O   0  0
    1.6835   -7.7678    0.0000 C   0  0
    0.2617   -2.8149    0.0000 O   0  0
   -0.4548   -3.2261    0.0000 C   0  0
  1  2  2  0
  2  3  1  0
  3  6  2  0
  5  4  2  0
  4  1  1  0
  5  6  1  0
  6  7  1  0
  7  8  1  0
  8  9  1  0
  9 10  1  0
 10  5  1  0
  2 11  1  0
  7 12  1  0
  8 13  2  0
  9 14  1  0
 14 15  1  0
 15 16  2  0
 16 17  1  0
 17 18  2  0
 18 19  1  0
 19 20  2  0
 20 15  1  0
 12 21  2  0
 21 22  1  0
 22 23  2  0
 23 24  1  0
 24 25  2  0
 25 12  1  0
 11 26  1  0
 26 27  2  0
 27 28  1  0
 28 29  2  0
 29 30  1  0
 30 31  2  0
 31 26  1  0
 29 32  1  0
 32 33  1  0
 32 37  1  0
 33 34  1  0
 34 35  1  0
 35 36  1  0
 36 37  1  0
 24 38  1  0
 38 39  1  0
 39 40  1  0
 40 41  2  0
 39 42  2  0
 35 43  1  0
 27 44  1  0
 44 45  1  0
M  END
> <chembl_id>
CHEMBL2029438

$$$$

  SciTegic01161211212D

 38 42  0  0  0  0            999 V2000
    0.7351   -8.9552    0.0000 C   0  0
    0.7369   -9.7868    0.0000 C   0  0
    1.4454  -10.1890    0.0000 N   0  0
    1.4416   -8.5390    0.0000 C   0  0
    2.1579   -8.9447    0.0000 C   0  0
    2.1618   -9.7776    0.0000 C   0  0
    3.5849   -9.7708    0.0000 C   0  0
    2.8610   -8.5379    0.0000 N   0  0
    2.8610   -7.7132    0.0000 C   0  0
    3.5922   -8.9613    0.0000 C   0  0
    5.0166   -7.2941    0.0000 C   0  0
    3.5760   -7.3013    0.0000 C   0  0
    4.2973   -7.7132    0.0000 C   0  0
    5.0179   -6.4595    0.0000 C   0  0
    4.2867   -6.0494    0.0000 C   0  0
    3.5683   -6.4751    0.0000 C   0  0
    2.8498   -6.0700    0.0000 C   0  0
    2.8414   -5.2453    0.0000 F   0  0
    2.1399   -6.4896    0.0000 F   0  0
    2.1293   -5.6567    0.0000 F   0  0
    5.7313   -7.7056    0.0000 Cl  0  0
    0.0185   -8.5468    0.0000 C   0  0
    0.0178   -7.7247    0.0000 C   0  0
   -0.6978   -7.3163    0.0000 C   0  0
   -1.4107   -7.7326    0.0000 C   0  0
   -1.4035   -8.5616    0.0000 C   0  0
   -0.6873   -8.9661    0.0000 C   0  0
   -2.1277   -7.3251    0.0000 C   0  0
   -2.1334   -6.5004    0.0000 O   0  0
   -2.8391   -7.7424    0.0000 N   0  0
   -3.5565   -7.3315    0.0000 C   0  0
   -4.2659   -7.7453    0.0000 C   0  0
   -4.2645   -8.5703    0.0000 C   0  0
   -3.5476   -8.9799    0.0000 C   0  0
   -2.8321   -8.5646    0.0000 C   0  0
   -4.9774   -8.9848    0.0000 O   0  0
   -5.6929   -8.5746    0.0000 C   0  0
    2.8754  -10.1917    0.0000 N   0  0
  1  2  1  0
 17 18  1  0
  2  3  2  0
 17 19  1  0
  3  6  1  0
 17 20  1  0
  5  4  1  0
 11 21  1  0
  4  1  2  0
  1 22  1  0
  5  6  2  0
 22 23  2  0
  5  8  1  0
 23 24  1  0
 24 25  2  0
 25 26  1  0
  7 10  1  0
 26 27  2  0
 27 22  1  0
 10  8  1  0
 25 28  1  0
  8  9  1  0
 28 29  2  0
 12 13  2  0
 28 30  1  0
 30 31  1  0
 13 11  1  0
 11 14  2  0
 14 15  1  0
 15 16  2  0
 16 12  1  0
 30 35  1  0
 31 32  1  0
 32 33  1  0
 33 34  1  0
 34 35  1  0
  9 12  1  0
 33 36  1  0
 36 37  1  0
 16 17  1  0
  6 38  1  0
 38  7  1  0
M  END
> <chembl_id>
CHEMBL1163567

$$$$

  SciTegic12201610262D

 28 31  0  0  0  0            999 V2000
    1.9770    6.4658    0.0000 C   0  0
    2.2933    4.9987    0.0000 C   0  0
    2.9661    7.5576    0.0000 C   0  0
    3.7017    4.5125    0.0000 N   0  0
    1.3859    3.8575    0.0000 C   0  0
    2.2172    8.8604    0.0000 N   0  0
    2.2115    2.6132    0.0000 C   0  0
    0.6075    7.0612    0.0000 C   0  0
    3.6501    3.0201    0.0000 C   0  0
    0.7567    8.5488    0.0000 C   0  0
    4.1592    7.4292    0.0000 O   0  0
   -0.1107    3.9324    0.0000 N   0  0
    1.8270    1.1592    0.0000 C   0  0
   -0.7569    6.4285    0.0000 C   0  0
    4.7393    1.9829    0.0000 C   0  0
   -0.4548    9.4399    0.0000 C   0  0
    2.9211    0.1044    0.0000 C   0  0
   -1.9866    7.3214    0.0000 C   0  0
    4.3597    0.5113    0.0000 C   0  0
   -1.8374    8.8090    0.0000 C   0  0
   -0.7624    2.9248    0.0000 O   0  0
   -3.3601    6.7164    0.0000 N   0  0
   -4.5712    7.6028    0.0000 C   0  0
   -4.4413    8.7957    0.0000 O   0  0
   -5.9448    6.9980    0.0000 C   0  0
   -7.1559    7.8843    0.0000 C   0  0
   -8.5295    7.2795    0.0000 C   0  0
   -9.4979    7.9882    0.0000 C   0  0
  2  1  2  0
  3  1  1  0
  4  2  1  0
  5  2  1  0
  6  3  1  0
  7  5  1  0
  8  1  1  0
  9  4  1  0
 10  8  2  0
 11  3  2  0
 12  5  2  0
 13  7  2  0
 14  8  1  0
 15  9  2  0
 16 10  1  0
 17 13  1  0
 18 14  2  0
 19 15  1  0
 20 18  1  0
  6 10  1  0
  7  9  1  0
 16 20  2  0
 17 19  2  0
 12 21  1  0
 18 22  1  0
 22 23  1  0
 23 24  2  0
 23 25  1  0
 25 26  1  0
 26 27  1  0
 27 28  1  0
M  END
> <chembl_id>
CHEMBL3797480

$$$$

  SciTegic11131810022D

 38 42  0  0  0  0            999 V2000
   -3.6619   -8.0771    0.0000 C   0  0
   -2.6197   -7.4823    0.0000 N   0  0
   -1.3244   -8.2389    0.0000 C   0  0
   -0.0216   -7.4954    0.0000 C   0  0
   -0.0140   -5.9954    0.0000 N   0  0
   -1.3093   -5.2389    0.0000 C   0  0
   -2.6121   -5.9823    0.0000 C   0  0
    1.2883   -5.2495    0.0000 C   0  0
    2.5847   -6.0040    0.0000 C   0  0
    3.8864   -5.2585    0.0000 C   0  0
    3.8915   -3.7585    0.0000 C   0  0
    5.1954   -3.0153    0.0000 O   0  0
    6.4915   -3.7721    0.0000 C   0  0
    7.5340   -3.1778    0.0000 F   0  0
    6.4852   -4.9721    0.0000 F   0  0
    7.5275   -4.3777    0.0000 F   0  0
    2.5951   -3.0039    0.0000 C   0  0
    2.5973   -1.5031    0.0000 N   0  0
    1.2990   -0.7500    0.0000 C   0  0
    1.2990    0.7500    0.0000 N   0  0
    0.0000    1.5000    0.0000 C   0  0
   -1.2990    0.7500    0.0000 C   0  0
   -2.5981    1.5000    0.0000 C   0  0
   -3.8971    0.7500    0.0000 C   0  0
   -3.8971   -0.7500    0.0000 C   0  0
   -5.0114   -1.7530    0.0000 C   0  0
   -4.4013   -3.1233    0.0000 N   0  0
   -2.9095   -2.9665    0.0000 N   0  0
   -1.9091   -4.0818    0.0000 C   0  0
   -2.3746   -5.5086    0.0000 C   0  0
   -1.5733   -6.4019    0.0000 O   0  0
   -2.5981   -1.5000    0.0000 C   0  0
   -1.2990   -0.7500    0.0000 C   0  0
    0.0000   -1.5000    0.0000 N   0  0
   -6.4775   -1.4443    0.0000 C   0  0
   -7.2793   -2.3370    0.0000 O   0  0
   -6.8501   -0.3036    0.0000 N   0  0
    1.2935   -3.7495    0.0000 C   0  0
  1  2  1  0
  2  3  1  0
  3  4  1  0
  4  5  1  0
  5  6  1  0
  6  7  1  0
  7  2  1  0
  5  8  1  0
  8  9  2  0
  9 10  1  0
 10 11  2  0
 11 12  1  0
 12 13  1  0
 13 14  1  0
 13 15  1  0
 13 16  1  0
 11 17  1  0
 17 18  1  0
 18 19  1  0
 19 20  2  0
 20 21  1  0
 21 22  2  0
 22 23  1  0
 23 24  1  0
 24 25  1  0
 25 26  1  0
 26 27  2  0
 27 28  1  0
 28 29  1  0
 29 30  1  0
 30 31  1  0
 28 32  1  0
 32 25  2  0
 32 33  1  0
 33 22  1  0
 33 34  2  0
 34 19  1  0
 26 35  1  0
 35 36  2  0
 35 37  1  0
 17 38  2  0
 38  8  1  0
M  END
> <chembl_id>
CHEMBL1738758

$$$$

  SciTegic12211613092D

 39 43  0  0  0  0            999 V2000
   -5.3425    5.2369    0.0000 N   0  0
   -5.2049    3.7560    0.0000 C   0  0  2  0  0  0
   -6.5563    3.1351    0.0000 C   0  0
   -7.5599    4.2500    0.0000 O   0  0
   -6.8097    5.5489    0.0000 C   0  0
   -3.9067    3.0027    0.0000 C   0  0
   -2.8664    3.6008    0.0000 O   0  0
   -3.9091    1.5019    0.0000 N   0  0
   -2.6111    0.7486    0.0000 C   0  0
   -2.6111   -0.7486    0.0000 C   0  0
   -1.2964   -1.4973    0.0000 C   0  0
   -1.2964    1.4973    0.0000 C   0  0
    0.0000    0.7486    0.0000 C   0  0
    0.0000   -0.7486    0.0000 C   0  0
    1.2964   -1.4973    0.0000 N   0  0
    2.5929   -0.7486    0.0000 C   0  0
    2.5929    0.7486    0.0000 N   0  0
    1.2964    1.4973    0.0000 C   0  0
   -3.9091   -1.5019    0.0000 O   0  0
    1.2995    2.9981    0.0000 N   0  0
    2.6003    3.7467    0.0000 C   0  0
    2.6056    5.2467    0.0000 C   0  0
    3.9072    5.9922    0.0000 C   0  0
    5.2037    5.2377    0.0000 C   0  0
    5.1985    3.7377    0.0000 C   0  0
    3.8969    2.9922    0.0000 C   0  0
   -7.2976    6.6452    0.0000 O   0  0
   -3.9067   -3.0027    0.0000 C   0  0
   -4.9447   -3.6050    0.0000 C   0  0
    6.2356    3.1342    0.0000 Cl  0  0
    6.5045    5.9863    0.0000 O   0  0
    6.5075    7.4872    0.0000 C   0  0
    7.8083    8.2357    0.0000 C   0  0
    7.8136    9.7358    0.0000 C   0  0
    9.1152   10.4813    0.0000 C   0  0
   10.4116    9.7268    0.0000 C   0  0
   10.4065    8.2268    0.0000 C   0  0
    9.1049    7.4813    0.0000 C   0  0
    9.1193   11.6813    0.0000 F   0  0
  1  2  1  0
  2  3  1  0
  3  4  1  0
  4  5  1  0
  5  1  1  0
  2  6  1  1
  6  7  2  0
  6  8  1  0
  8  9  1  0
  9 10  2  0
 10 11  1  0
 11 14  2  0
 13 12  2  0
 12  9  1  0
 13 14  1  0
 14 15  1  0
 15 16  2  0
 16 17  1  0
 17 18  2  0
 18 13  1  0
 10 19  1  0
 18 20  1  0
 20 21  1  0
 21 22  2  0
 22 23  1  0
 23 24  2  0
 24 25  1  0
 25 26  2  0
 26 21  1  0
  5 27  2  0
 19 28  1  0
 28 29  1  0
 25 30  1  0
 24 31  1  0
 31 32  1  0
 32 33  1  0
 33 34  2  0
 34 35  1  0
 35 36  2  0
 36 37  1  0
 37 38  2  0
 38 33  1  0
 35 39  1  0
M  END
> <chembl_id>
CHEMBL3818364

$$$$

  SciTegic12201610342D

 36 39  0  0  0  0            999 V2000
    2.5951   -3.0039    0.0000 C   0  0
    3.8933   -3.7570    0.0000 C   0  0
    3.8916   -4.9570    0.0000 C   0  0
    1.5548   -3.6021    0.0000 O   0  0
    2.5973   -1.5031    0.0000 N   0  0
    1.2990   -0.7500    0.0000 C   0  0
    1.2990    0.7500    0.0000 C   0  0
    0.0000    1.5000    0.0000 C   0  0
   -1.2990    0.7500    0.0000 C   0  0
   -1.2990   -0.7500    0.0000 C   0  0
    0.0000   -1.5000    0.0000 C   0  0
   -0.0031    3.0008    0.0000 O   0  0
   -3.9021    3.7404    0.0000 C   0  0
   -2.6005    2.9949    0.0000 N   0  0
   -1.3039    3.7494    0.0000 C   0  0
   -1.3092    5.2494    0.0000 C   0  0
   -2.6108    5.9949    0.0000 C   0  0
   -3.9073    5.2404    0.0000 N   0  0
   -0.0136    6.0070    0.0000 S   0  0
   -0.0195    7.2070    0.0000 C   0  0
   -5.2008    2.9882    0.0000 N   0  0
   -6.5021    3.7360    0.0000 C   0  0
   -7.8012    2.9860    0.0000 C   0  0
   -9.1002    3.7360    0.0000 C   0  0
   -9.1002    5.2360    0.0000 C   0  0
   -7.8012    5.9860    0.0000 C   0  0
   -6.5021    5.2360    0.0000 C   0  0
  -10.3999    5.9864    0.0000 N   0  0
  -11.7002    5.2385    0.0000 C   0  0
  -12.9981    5.9906    0.0000 C   0  0
  -12.9957    7.4906    0.0000 N   0  0
  -11.6955    8.2385    0.0000 C   0  0
  -10.3976    7.4864    0.0000 C   0  0
  -14.0340    8.0922    0.0000 C   0  0
   -7.8043    1.4852    0.0000 O   0  0
   -8.8444    0.8867    0.0000 C   0  0
  1  2  1  0
  2  3  2  0
  1  4  2  0
  1  5  1  0
  6  7  1  0
  7  8  2  0
  8  9  1  0
  9 10  2  0
 10 11  1  0
  6 11  2  0
 13 14  1  0
 14 15  2  0
 15 16  1  0
 16 17  2  0
 17 18  1  0
 13 18  2  0
 19 20  1  0
 16 19  1  0
 22 23  1  0
 23 24  2  0
 24 25  1  0
 25 26  2  0
 26 27  1  0
 22 27  2  0
 28 29  1  0
 29 30  1  0
 30 31  1  0
 31 32  1  0
 32 33  1  0
 28 33  1  0
 31 34  1  0
 25 28  1  0
 35 36  1  0
 23 35  1  0
 21 22  1  0
 13 21  1  0
 12 15  1  0
  8 12  1  0
  5  6  1  0
M  END
> <chembl_id>
CHEMBL3797606

$$$$

  SciTegic12231509382D

 36 39  0  0  0  0            999 V2000
    9.6931   -3.7519    0.0000 Cl  0  0
    9.7137   -6.6197    0.0000 Cl  0  0
    5.1704   -1.2952    0.0000 O   0  0
    5.1704   -2.9501    0.0000 O   0  0
    8.0588   -6.6402    0.0000 O   0  0
    8.0382   -3.7724    0.0000 N   0  0
    8.0382   -1.2952    0.0000 N   0  0
   10.1835   -3.3637    0.0000 N   0  0
    2.3128   -1.2952    0.0000 N   0  0
    0.8738   -0.4626    0.0000 N   0  0
    7.3187   -2.5287    0.0000 C   0  0
    8.0382   -2.9501    0.0000 C   0  0
    7.3187   -1.6961    0.0000 C   0  0
    8.7578   -2.5287    0.0000 C   0  0
    6.5991   -2.9501    0.0000 C   0  0
    5.8899   -2.5287    0.0000 C   0  0
    5.8899   -1.6961    0.0000 C   0  0
    6.5991   -1.2952    0.0000 C   0  0
    8.4596   -4.4817    0.0000 C   0  0
    8.7578   -1.6961    0.0000 C   0  0
    9.2820   -4.4817    0.0000 C   0  0
    8.0485   -5.1909    0.0000 C   0  0
    8.4699   -5.9208    0.0000 C   0  0
    9.4773   -2.9501    0.0000 C   0  0
    9.2922   -5.9105    0.0000 C   0  0
    9.7034   -5.1909    0.0000 C   0  0
    4.4611   -1.6961    0.0000 C   0  0
    4.4611   -2.5287    0.0000 C   0  0
    3.7416   -1.2952    0.0000 C   0  0
    7.2261   -6.6402    0.0000 C   0  0
    3.0323   -1.6961    0.0000 C   0  0
    2.3128   -0.4626    0.0000 C   0  0
    1.5932   -1.6961    0.0000 C   0  0
    1.5932   -0.0514    0.0000 C   0  0
    0.8738   -1.2952    0.0000 C   0  0
    0.0000    0.0000    0.0000 C   0  0
  1 21  1  0
  2 25  1  0
  3 17  1  0
  3 27  1  0
  4 16  1  0
  4 28  1  0
  5 23  1  0
  5 30  1  0
  6 12  1  0
  6 19  1  0
  7 13  1  0
  7 20  2  0
  8 24  3  0
  9 31  1  0
  9 32  1  0
  9 33  1  0
 10 34  1  0
 10 35  1  0
 10 36  1  0
 11 12  1  0
 11 13  1  0
 11 15  2  0
 12 14  2  0
 13 18  2  0
 14 20  1  0
 14 24  1  0
 15 16  1  0
 16 17  2  0
 17 18  1  0
 19 21  1  0
 19 22  2  0
 21 26  2  0
 22 23  1  0
 23 25  2  0
 25 26  1  0
 27 29  1  0
 29 31  1  0
 32 34  1  0
 33 35  1  0
M  END
> <chembl_id>
CHEMBL288441

$$$$

  SciTegic12201616162D

 23 25  0  0  0  0            999 V2000
    5.1929   -0.7441    0.0000 C   0  0
    5.1908    0.4559    0.0000 C   0  0
    6.2333   -1.3420    0.0000 O   0  0
    3.8942   -1.4964    0.0000 N   0  0
   -1.2964    1.4973    0.0000 N   0  0
   -2.6111    0.7486    0.0000 C   0  0
   -2.6111   -0.7486    0.0000 N   0  0
   -1.2964   -1.4973    0.0000 C   0  0
    0.0000   -0.7486    0.0000 C   0  0
    1.2964   -1.4973    0.0000 C   0  0
    2.5929   -0.7486    0.0000 C   0  0
    2.5929    0.7486    0.0000 C   0  0
    1.2964    1.4973    0.0000 C   0  0
    0.0000    0.7486    0.0000 C   0  0
   -1.2907   -2.9981    0.0000 N   0  0
   -2.5870   -3.7544    0.0000 C   0  0
   -2.5835   -5.2544    0.0000 C   0  0
   -3.8807   -6.0076    0.0000 C   0  0
   -5.1815   -5.2608    0.0000 C   0  0
   -5.1852   -3.7608    0.0000 C   0  0
   -3.8880   -3.0076    0.0000 C   0  0
   -6.2193   -5.8633    0.0000 F   0  0
   -3.8777   -7.2076    0.0000 Cl  0  0
  1  2  1  0
  1  3  2  0
  1  4  1  0
  5  6  1  0
  6  7  2  0
  7  8  1  0
  8  9  2  0
  9 10  1  0
 10 11  2  0
 11 12  1  0
 12 13  2  0
 13 14  1  0
  5 14  2  0
  9 14  1  0
 16 17  1  0
 17 18  2  0
 18 19  1  0
 19 20  2  0
 20 21  1  0
 16 21  2  0
 19 22  1  0
 18 23  1  0
 15 16  1  0
  8 15  1  0
  4 11  1  0
M  END
> <chembl_id>
CHEMBL3814257

$$$$

  SciTegic04201612532D

 19 22  0  0  0  0            999 V2000
    2.5200   -0.3300    0.0000 O   0  0
    1.2600    0.4000    0.0000 C   0  0
    1.2600    1.8600    0.0000 C   0  0
    2.5200    2.6000    0.0000 C   0  0
    3.8000    1.8600    0.0000 C   0  0
    5.0500    2.5700    0.0000 C   0  0
    6.3600    1.8600    0.0000 C   0  0
    6.3600    0.4000    0.0000 C   0  0
    5.0500   -0.3600    0.0000 C   0  0
    3.8000    0.4000    0.0000 C   0  0
    0.0000   -0.3300    0.0000 C   0  0
   -1.2800    0.4000    0.0000 C   0  0
   -2.5200   -0.3300    0.0000 C   0  0
   -3.7800    0.4000    0.0000 C   0  0
   -3.7800    1.8600    0.0000 C   0  0
   -2.5200    2.6000    0.0000 C   0  0
   -1.2800    1.8600    0.0000 C   0  0
    0.0041   -1.5300    0.0000 O   0  0
    2.5159    3.8000    0.0000 O   0  0
  1  2  1  0
  2  3  2  0
  3  4  1  0
  4  5  1  0
  5  6  1  0
  6  7  2  0
  7  8  1  0
  8  9  2  0
  9 10  1  0
  1 10  1  0
  5 10  2  0
 11 12  1  0
 12 13  1  0
 13 14  2  0
 14 15  1  0
 15 16  2  0
 16 17  1  0
 12 17  2  0
  2 11  1  0
  3 17  1  0
 11 18  2  0
  4 19  2  0
M  END
> <chembl_id>
CHEMBL3629616

$$$$

  SciTegic06051313552D

 25 28  0  0  0  0            999 V2000
    1.6495  -17.1527    0.0000 C   0  0
    1.6483  -17.9723    0.0000 C   0  0
    2.3564  -18.3812    0.0000 C   0  0
    3.0660  -17.9718    0.0000 C   0  0
    3.0632  -17.1491    0.0000 C   0  0
    2.3546  -16.7439    0.0000 C   0  0
    3.7439  -16.6970    0.0000 C   0  0
    4.5112  -16.9781    0.0000 C   0  0
    5.0157  -16.3353    0.0000 C   0  0
    4.5598  -15.6574    0.0000 N   0  0
    3.7742  -15.8804    0.0000 N   0  0
    4.9654  -14.9479    0.0000 C   0  0
    5.7825  -14.9444    0.0000 N   0  0
    4.5537  -14.2420    0.0000 S   0  0
    5.8302  -16.3655    0.0000 C   0  0
    6.2119  -17.0893    0.0000 C   0  0
    7.0762  -15.7021    0.0000 C   0  0
    6.2616  -15.6753    0.0000 C   0  0
    7.4629  -16.4269    0.0000 C   0  0
    7.0273  -17.1173    0.0000 C   0  0
    7.4074  -17.8377    0.0000 C   0  0
    8.2230  -17.8688    0.0000 C   0  0
    8.6569  -17.1736    0.0000 C   0  0
    8.2743  -16.4560    0.0000 C   0  0
    0.9403  -18.3803    0.0000 Cl  0  0
  1  2  2  0
  2  3  1  0
  3  4  2  0
  4  5  1  0
  5  6  2  0
  6  1  1  0
  7  8  1  0
  8  9  1  0
  9 10  1  0
 10 11  1  0
 11  7  2  0
  5  7  1  0
 10 12  1  0
 12 13  1  0
 12 14  2  0
 15 16  2  0
 16 20  1  0
 19 17  1  0
 17 18  2  0
 18 15  1  0
  9 15  1  0
 19 20  1  0
 20 21  2  0
 21 22  1  0
 22 23  2  0
 23 24  1  0
 24 19  2  0
  2 25  1  0
M  END
> <chembl_id>
CHEMBL2324870

$$$$

  SciTegic04191617032D

 27 30  0  0  0  0            999 V2000
   -2.6111    0.7486    0.0000 C   0  0
   -2.6111   -0.7486    0.0000 C   0  0
   -1.2964   -1.4973    0.0000 C   0  0
   -1.2964    1.4973    0.0000 C   0  0
    0.0000    0.7486    0.0000 C   0  0
    0.0000   -0.7486    0.0000 C   0  0
    1.2964   -1.4973    0.0000 N   0  0
    2.5929   -0.7486    0.0000 C   0  0
    2.5929    0.7486    0.0000 N   0  0
    1.2964    1.4973    0.0000 C   0  0
    1.2995    2.9981    0.0000 N   0  0
    2.6003    3.7467    0.0000 C   0  0
    2.7434    5.2271    0.0000 C   0  0
    4.2117    5.5338    0.0000 C   0  0
    4.9571    4.2322    0.0000 N   0  0
    3.9496    3.1210    0.0000 N   0  0
    3.8926   -1.4990    0.0000 C   0  0
    5.1929   -0.7510    0.0000 C   0  0
    6.4908   -1.5029    0.0000 C   0  0
    6.4885   -3.0029    0.0000 C   0  0
    5.1883   -3.7510    0.0000 C   0  0
    3.8904   -2.9990    0.0000 C   0  0
    5.1983    0.7498    0.0000 N   0  0
    6.5003    1.4964    0.0000 C   0  0
    6.5057    2.9972    0.0000 C   0  0
    7.5375    0.8930    0.0000 O   0  0
    7.5467    3.5941    0.0000 C   0  0
  1  2  2  0
  2  3  1  0
  3  6  2  0
  5  4  2  0
  4  1  1  0
  5  6  1  0
  6  7  1  0
  7  8  2  0
  8  9  1  0
  9 10  2  0
 10  5  1  0
 10 11  1  0
 11 12  1  0
 12 13  1  0
 13 14  2  0
 14 15  1  0
 15 16  1  0
 16 12  2  0
  8 17  1  0
 17 18  2  0
 18 19  1  0
 19 20  2  0
 20 21  1  0
 21 22  2  0
 22 17  1  0
 18 23  1  0
 23 24  1  0
 24 25  1  0
 24 26  2  0
 25 27  2  0
M  END
> <chembl_id>
CHEMBL3604911

$$$$

  SciTegic04201609482D

 31 34  0  0  0  0            999 V2000
   -1.0028    1.5132    0.0000 C   0  0
   -2.3155    0.7475    0.0000 N   0  0
   -2.3155   -0.7475    0.0000 C   0  0
   -1.0028   -1.5132    0.0000 N   0  0
    0.2917    0.7475    0.0000 C   0  0
    0.2917   -0.7475    0.0000 C   0  0
    1.7138   -1.2033    0.0000 N   0  0
    2.5889    0.0182    0.0000 C   0  0
    1.7138    1.2033    0.0000 N   0  0
    2.0907   -2.3426    0.0000 C   0  0
   -0.9971    3.0138    0.0000 N   0  0
   -2.2935    3.7700    0.0000 C   0  0
   -2.4279    5.2511    0.0000 C   0  0
   -3.8944    5.5664    0.0000 N   0  0
   -4.6474    4.2692    0.0000 N   0  0
   -3.6464    3.1521    0.0000 C   0  0
   -3.6168   -1.4950    0.0000 N   0  0
   -3.7580   -2.9756    0.0000 C   0  0
   -5.2259   -3.2843    0.0000 C   0  0  2  0  0  0
   -5.9730   -1.9836    0.0000 C   0  0  1  0  0  0
   -4.9669   -0.8711    0.0000 C   0  0
   -7.1662   -1.8556    0.0000 F   0  0
   -5.8354   -4.6530    0.0000 N   0  0
   -4.9542   -5.8678    0.0000 C   0  0
   -5.5648   -7.2388    0.0000 C   0  0
   -3.7607   -5.7429    0.0000 O   0  0
   -4.8601   -8.2102    0.0000 C   0  0
   -1.3066    6.2447    0.0000 O   0  0
   -1.5460    7.4206    0.0000 C   0  0
   -6.1375    4.1130    0.0000 C   0  0
   -6.6266    3.0172    0.0000 C   0  0
  5  1  2  0
  1  2  1  0
  2  3  2  0
  3  4  1  0
  4  6  2  0
  5  6  1  0
  6  7  1  0
  7  8  1  0
  8  9  2  0
  9  5  1  0
  7 10  1  0
  1 11  1  0
 11 12  1  0
 12 13  1  0
 13 14  2  0
 14 15  1  0
 15 16  1  0
 16 12  2  0
  3 17  1  0
 17 18  1  0
 18 19  1  0
 19 20  1  0
 20 21  1  0
 21 17  1  0
 20 22  1  6
 19 23  1  1
 23 24  1  0
 24 25  1  0
 24 26  2  0
 25 27  2  0
 13 28  1  0
 28 29  1  0
 15 30  1  0
 30 31  1  0
M  END
> <chembl_id>
CHEMBL3608434

$$$$

  SciTegic01181116592D

 25 27  0  0  0  0            999 V2000
   18.1141  -24.0885    0.0000 N   0  0
   18.8306  -23.6751    0.0000 C   0  0
   18.8277  -22.8445    0.0000 N   0  0
   18.1123  -22.4353    0.0000 C   0  0
   18.1099  -21.6102    0.0000 N   0  0
   17.3992  -23.6756    0.0000 C   0  0
   17.3959  -22.8512    0.0000 C   0  0
   16.6162  -23.9334    0.0000 S   0  0
   16.1289  -23.2685    0.0000 C   0  0
   16.6105  -22.6013    0.0000 C   0  0
   16.2754  -21.8547    0.0000 C   0  0
   15.4576  -21.7689    0.0000 C   0  0
   14.9759  -22.4357    0.0000 N   0  0
   15.3121  -23.1891    0.0000 C   0  0
   18.8231  -21.1956    0.0000 C   0  0
   18.8206  -20.3705    0.0000 C   0  0
   14.1472  -22.4356    0.0000 C   0  0
   13.7347  -23.1502    0.0000 O   0  0
   13.7348  -21.7210    0.0000 C   0  0
   14.1474  -21.0065    0.0000 C   0  0
   13.7350  -20.2920    0.0000 C   0  0
   14.1476  -19.5774    0.0000 N   0  0
   14.9731  -19.5799    0.0000 C   0  0
   13.7336  -18.8653    0.0000 C   0  0
   19.5340  -19.9558    0.0000 O   0  0
  6  1  1  0
  9 14  1  0
 10 11  1  0
 11 12  1  0
 12 13  1  0
 13 14  1  0
  2  3  1  0
  5 15  1  0
 15 16  1  0
  7 10  1  0
 13 17  1  0
  9  8  1  0
 17 18  2  0
  8  6  1  0
 17 19  1  0
  9 10  2  0
 19 20  2  0
  3  4  2  0
 20 21  1  0
  4  7  1  0
 21 22  1  0
 22 23  1  0
  1  2  2  0
  4  5  1  0
 22 24  1  0
  6  7  2  0
 16 25  1  0
M  END
> <chembl_id>
CHEMBL1271619

$$$$

  SciTegic02271217242D

 31 34  0  0  0  0            999 V2000
   -1.4836  -23.1402    0.0000 N   0  0
   -0.7672  -22.7269    0.0000 C   0  0
   -0.7700  -21.8963    0.0000 N   0  0
   -1.4854  -21.4872    0.0000 C   0  0
   -2.1984  -22.7273    0.0000 C   0  0
   -2.1972  -21.8984    0.0000 C   0  0
   -2.9852  -21.6411    0.0000 N   0  0
   -3.4734  -22.3110    0.0000 C   0  0
   -2.9872  -22.9822    0.0000 C   0  0
   -1.4872  -20.6622    0.0000 N   0  0
   -0.7737  -20.2481    0.0000 C   0  0
   -0.0614  -20.6620    0.0000 C   0  0
    0.6517  -20.2486    0.0000 C   0  0
    0.6503  -19.4228    0.0000 C   0  0
   -0.0701  -19.0120    0.0000 C   0  0
   -0.7802  -19.4277    0.0000 C   0  0
    1.3669  -20.6599    0.0000 Cl  0  0
    1.3633  -19.0077    0.0000 O   0  0
   -3.2389  -20.8560    0.0000 C   0  0
    2.0793  -19.4177    0.0000 C   0  0
    2.0793  -20.2428    0.0000 C   0  0
    2.7944  -20.6527    0.0000 C   0  0
    3.5084  -20.2376    0.0000 C   0  0
    3.5028  -19.4083    0.0000 C   0  0
    2.7871  -19.0022    0.0000 C   0  0
    4.2143  -18.9908    0.0000 Cl  0  0
   -4.0456  -20.6833    0.0000 C   0  0
   -4.2993  -19.8983    0.0000 O   0  0
   -5.1060  -19.7255    0.0000 C   0  0
   -5.3598  -18.9405    0.0000 C   0  0
   -6.1668  -18.7677    0.0000 O   0  0
 14 15  1  0
  3  4  2  0
 15 16  2  0
 16 11  1  0
  6  7  1  0
 13 17  1  0
  7  8  1  0
 14 18  1  0
  8  9  2  0
  7 19  1  0
  9  5  1  0
 18 20  1  0
  4  6  1  0
 20 21  2  0
  4 10  1  0
 21 22  1  0
  5  6  2  0
 22 23  2  0
 10 11  1  0
 23 24  1  0
  1  2  2  0
 24 25  2  0
 25 20  1  0
 11 12  2  0
 24 26  1  0
  5  1  1  0
 19 27  1  0
 12 13  1  0
 27 28  1  0
  2  3  1  0
 28 29  1  0
 13 14  2  0
 29 30  1  0
 30 31  1  0
M  END
> <chembl_id>
CHEMBL1923009

$$$$

  SciTegic12191611242D

 31 34  0  0  0  0            999 V2000
   -8.4598    0.3211    0.0000 C   0  0
   -7.2652    0.2078    0.0000 N   0  0
   -6.5020   -1.0835    0.0000 N   0  0
   -5.0380   -0.7567    0.0000 C   0  0
   -6.2729    1.3327    0.0000 C   0  0
   -4.9153    0.7255    0.0000 C   0  0
   -3.6217    1.4865    0.0000 N   0  0
   -2.3155    0.7475    0.0000 C   0  0
   -1.0028    1.5132    0.0000 N   0  0
    0.2917    0.7475    0.0000 C   0  0
    0.2917   -0.7475    0.0000 C   0  0
    1.7138   -1.2033    0.0000 C   0  0
    2.5889    0.0182    0.0000 C   0  0
    1.7138    1.2033    0.0000 N   0  0
   -1.0028   -1.5132    0.0000 C   0  0
   -0.9971   -3.0138    0.0000 O   0  0
   -2.2935   -3.7700    0.0000 C   0  0
   -2.2878   -5.2708    0.0000 C   0  0  1  0  0  0
   -1.0692   -6.1235    0.0000 C   0  0
   -1.5244   -7.5527    0.0000 N   0  0
   -0.6391   -8.7615    0.0000 C   0  0
   -1.2435  -10.1353    0.0000 C   0  0
   -0.5345  -11.1034    0.0000 C   0  0
    0.5538   -8.6312    0.0000 O   0  0
   -3.0244   -7.5615    0.0000 C   0  0
   -3.4962   -6.1377    0.0000 C   0  0  2  0  0  0
   -4.9202   -5.6722    0.0000 C   0  0
   -2.3155   -0.7475    0.0000 N   0  0
   -5.8140   -6.4729    0.0000 F   0  0
   -5.1672   -4.4978    0.0000 F   0  0
   -6.0607   -5.2987    0.0000 F   0  0
  1  2  1  0
  2  3  1  0
  3  4  2  0
  2  5  1  0
  5  6  2  0
  4  6  1  0
  6  7  1  0
  7  8  1  0
  8  9  2  0
  9 10  1  0
 10 11  2  0
 11 12  1  0
 12 13  2  0
 13 14  1  0
 10 14  1  0
 11 15  1  0
 15 16  1  0
 16 17  1  0
 18 17  1  1
 18 19  1  0
 19 20  1  0
 20 21  1  0
 21 22  1  0
 22 23  2  0
 21 24  2  0
 20 25  1  0
 25 26  1  0
 18 26  1  0
 26 27  1  6
 15 28  2  0
  8 28  1  0
 27 29  1  0
 27 30  1  0
 27 31  1  0
M  END
> <chembl_id>
CHEMBL3785393

$$$$

  SciTegic04301217312D

 31 34  0  0  0  0            999 V2000
    0.3667    1.1542    0.0000 N   0  0
    0.3667    0.3292    0.0000 C   0  0
    1.0787   -0.0792    0.0000 N   0  0
    1.0787    1.5708    0.0000 C   0  0
    1.7907    1.1542    0.0000 C   0  0
    1.7907    0.3281    0.0000 C   0  0
    2.5763    0.0728    0.0000 S   0  0
    3.0619    0.7411    0.0000 C   0  0
    2.5763    1.4093    0.0000 C   0  0
    1.0787    2.3958    0.0000 O   0  0
    3.8869    0.7411    0.0000 C   0  0
    2.8313    2.1939    0.0000 C   0  0
   -0.3490    1.5646    0.0000 C   0  0
   -0.3477    2.3886    0.0000 C   0  0
   -1.0625    2.7989    0.0000 C   0  0
   -1.7767    2.3842    0.0000 C   0  0
   -1.7717    1.5550    0.0000 C   0  0
   -1.0562    1.1484    0.0000 C   0  0
   -2.4930    2.7937    0.0000 C   0  0
   -0.3472   -0.0844    0.0000 S   0  0
   -1.0623    0.3271    0.0000 C   0  0
   -1.7761   -0.0864    0.0000 C   0  0
   -2.4912    0.3250    0.0000 N   0  0
   -1.7749   -0.9114    0.0000 O   0  0
   -3.2051   -0.0885    0.0000 C   0  0
   -3.9214    0.3210    0.0000 C   0  0
   -4.6347   -0.0919    0.0000 C   0  0
   -4.6340   -0.9177    0.0000 C   0  0
   -3.9139   -1.3290    0.0000 C   0  0
   -3.2035   -0.9138    0.0000 C   0  0
   -3.9235    1.1460    0.0000 Cl  0  0
 14 15  1  0
  3  6  1  0
 15 16  2  0
  6  7  1  0
 16 17  1  0
  7  8  1  0
 17 18  2  0
 18 13  1  0
  8  9  2  0
 16 19  1  0
  9  5  1  0
  2 20  1  0
  5  4  1  0
 20 21  1  0
  4 10  2  0
 21 22  1  0
  5  6  2  0
 22 23  1  0
  8 11  1  0
 22 24  2  0
 23 25  1  0
  9 12  1  0
 25 26  2  0
  1  2  1  0
 26 27  1  0
  1 13  1  0
 27 28  2  0
  1  4  1  0
 28 29  1  0
 13 14  2  0
 29 30  2  0
 30 25  1  0
  2  3  2  0
 26 31  1  0
M  END
> <chembl_id>
CHEMBL1944641

$$$$

  SciTegic04091414352D

 35 39  0  0  0  0            999 V2000
   12.3934   -8.0449    0.0000 N   0  0
   12.4651   -7.2303    0.0000 C   0  0
   13.2618   -7.0468    0.0000 C   0  0
   13.6827   -7.7478    0.0000 C   0  0
   13.1459   -8.3647    0.0000 C   0  0
   11.6923   -8.4657    0.0000 C   0  0
   11.7062   -9.2832    0.0000 O   0  0
   10.9774   -8.0689    0.0000 N   0  0
   14.0031   -6.7015    0.0000 F   0  0
   12.9960   -6.2735    0.0000 F   0  0
    8.1731   -9.7522    0.0000 N   0  0
    7.4581   -9.3554    0.0000 C   0  0
    7.4442   -8.5379    0.0000 N   0  0
    8.1453   -8.1171    0.0000 C   0  0
    8.8603   -8.5138    0.0000 C   0  0
    9.5613   -8.0930    0.0000 C   0  0
   10.2763   -8.4897    0.0000 C   0  0
   10.2902   -9.3073    0.0000 C   0  0
    9.5891   -9.7281    0.0000 C   0  0
    8.8742   -9.3314    0.0000 C   0  0
   11.0052   -9.7040    0.0000 O   0  0
   10.6317  -11.7866    0.0000 O   0  0
   10.3658  -11.0134    0.0000 C   0  0
   11.0191  -10.5216    0.0000 C   0  0  2  0  0  0
   11.6887  -10.9909    0.0000 C   0  0
   11.4492  -11.7727    0.0000 C   0  0
    8.1314   -7.2995    0.0000 N   0  0
    7.4164   -6.9028    0.0000 C   0  0
    6.7154   -7.3236    0.0000 C   0  0
    6.0004   -6.9269    0.0000 C   0  0
    5.9865   -6.1093    0.0000 C   0  0
    6.6876   -5.6885    0.0000 C   0  0
    7.4025   -6.0852    0.0000 C   0  0
    5.2715   -5.7126    0.0000 F   0  0
    5.2993   -7.3477    0.0000 Cl  0  0
  1  2  1  0
  2  3  1  0
  3  4  1  0
  4  5  1  0
  1  5  1  0
  6  7  2  0
  6  8  1  0
  1  6  1  0
  3  9  1  0
  3 10  1  0
 11 12  1  0
 12 13  2  0
 13 14  1  0
 14 15  2  0
 15 16  1  0
 16 17  2  0
 17 18  1  0
 18 19  2  0
 19 20  1  0
 11 20  2  0
 15 20  1  0
 22 23  1  0
 23 24  1  0
 24 25  1  0
 25 26  1  0
 22 26  1  0
 24 21  1  1
 18 21  1  0
 28 29  1  0
 29 30  2  0
 30 31  1  0
 31 32  2  0
 32 33  1  0
 28 33  2  0
 31 34  1  0
 30 35  1  0
 27 28  1  0
 14 27  1  0
  8 17  1  0
M  END
> <chembl_id>
CHEMBL3092320

$$$$

  SciTegic10311316262D

 60 65  0  0  0  0            999 V2000
    2.6051  -16.5360    0.0000 O   0  0
    1.7801  -16.5360    0.0000 S   0  0
    2.1926  -17.2505    0.0000 O   0  0
    1.7753  -18.2570    0.0000 O   0  0
    1.0961  -17.7888    0.0000 C   0  0
    1.0736  -16.9634    0.0000 C   0  0
    0.2833  -16.7277    0.0000 N   0  3
   -0.1880  -17.4071    0.0000 O   0  0
    0.3164  -18.0622    0.0000 N   0  0
    1.7653  -15.7131    0.0000 C   0  0
    2.4737  -15.2919    0.0000 C   0  0
    2.4589  -14.4678    0.0000 C   0  0
    1.7365  -14.0677    0.0000 C   0  0
    1.0274  -14.4977    0.0000 C   0  0
    1.0457  -15.3204    0.0000 C   0  0
    8.9026  -23.2329    0.0000 C   0  0
    8.9014  -24.0602    0.0000 C   0  0
    9.6163  -24.4731    0.0000 C   0  0
   10.3326  -24.0598    0.0000 C   0  0
   10.3298  -23.2293    0.0000 C   0  0
    9.6144  -22.8201    0.0000 C   0  0
    8.1888  -22.8162    0.0000 N   0  0
    8.1906  -21.9902    0.0000 C   0  0
    7.4801  -21.5780    0.0000 C   0  0
    6.7633  -21.9871    0.0000 N   0  0
    7.4765  -23.2299    0.0000 C   0  0
    6.0503  -21.5721    0.0000 C   0  0
    9.6161  -25.2981    0.0000 O   0  0
    8.9015  -25.7104    0.0000 C   0  0
   11.0478  -24.4711    0.0000 N   0  0
   11.7615  -24.0575    0.0000 C   0  0
   12.4734  -24.4693    0.0000 N   0  0
   13.1866  -24.0564    0.0000 C   0  0
   13.1858  -23.2306    0.0000 C   0  0
   12.4657  -22.8193    0.0000 C   0  0
   11.7553  -23.2346    0.0000 N   0  0
   13.8990  -22.8160    0.0000 Cl  0  0
   12.4614  -21.9944    0.0000 O   0  0
   13.1738  -21.5783    0.0000 C   0  0
   13.8908  -21.9895    0.0000 C   0  0
   14.6028  -21.5740    0.0000 C   0  0
   14.5989  -20.7481    0.0000 C   0  0
   13.8774  -20.3395    0.0000 C   0  0
   13.1685  -20.7573    0.0000 C   0  0
   15.3191  -21.9832    0.0000 N   0  0
   16.0317  -21.5675    0.0000 C   0  0
   16.7480  -21.9766    0.0000 C   0  0
   16.0278  -20.7425    0.0000 O   0  0
   17.4606  -21.5608    0.0000 C   0  0
    6.0532  -20.7471    0.0000 C   0  0
    5.3403  -20.3321    0.0000 O   0  0
    6.7692  -20.3372    0.0000 O   0  0
    4.6243  -20.7421    0.0000 C   0  0
    3.9114  -20.3271    0.0000 C   0  0
    3.9143  -19.5021    0.0000 C   0  0
    3.2012  -19.0870    0.0000 C   0  0
    2.4854  -19.4970    0.0000 C   0  0
    1.7723  -19.0820    0.0000 C   0  0
    0.2750  -15.8997    0.0000 O   0  5
    6.7598  -22.8121    0.0000 C   0  0
  2  1  2  0
  3  2  2  0
  4  5  1  0
  5  6  1  0
  6  7  2  0
  7  8  1  0
  8  9  1  0
  9  5  2  0
  6  2  1  0
  2 10  1  0
 10 11  2  0
 11 12  1  0
 12 13  2  0
 13 14  1  0
 14 15  2  0
 15 10  1  0
 16 17  2  0
 17 18  1  0
 18 19  2  0
 19 20  1  0
 20 21  2  0
 21 16  1  0
 22 23  1  0
 22 26  1  0
 23 24  1  0
 24 25  1  0
 16 22  1  0
 25 27  1  0
 18 28  1  0
 28 29  1  0
 19 30  1  0
 30 31  1  0
 31 32  2  0
 32 33  1  0
 33 34  2  0
 34 35  1  0
 35 36  2  0
 36 31  1  0
 34 37  1  0
 35 38  1  0
 38 39  1  0
 39 40  2  0
 40 41  1  0
 41 42  2  0
 42 43  1  0
 43 44  2  0
 44 39  1  0
 41 45  1  0
 45 46  1  0
 46 47  1  0
 46 48  2  0
 47 49  2  0
 27 50  1  0
 50 51  1  0
 50 52  2  0
 51 53  1  0
 53 54  1  0
 54 55  1  0
 55 56  1  0
 56 57  1  0
 57 58  1  0
 58  4  1  0
  7 59  1  0
 25 60  1  0
 60 26  1  0
M  CHG  2   7   1  59  -1
M  END
> <chembl_id>
CHEMBL2381511

$$$$

  SciTegic09261414462D

 26 29  0  0  0  0            999 V2000
   30.9952   -4.7655    0.0000 N   0  0
   31.7049   -4.3561    0.0000 C   0  0
   31.7020   -3.5334    0.0000 N   0  0
   30.9934   -3.1281    0.0000 C   0  0
   30.2872   -4.3565    0.0000 C   0  0
   30.2884   -3.5400    0.0000 C   0  0
   29.5122   -3.2865    0.0000 C   0  0
   29.0312   -3.9464    0.0000 C   0  0
   29.5102   -4.6076    0.0000 S   0  0
   30.9897   -2.3110    0.0000 N   0  0
   31.6955   -1.8991    0.0000 C   0  0
   32.4029   -2.3092    0.0000 C   0  0
   33.1082   -1.8981    0.0000 C   0  0
   33.1049   -1.0800    0.0000 C   0  0
   32.3903   -0.6749    0.0000 C   0  0
   31.6879   -1.0884    0.0000 C   0  0
   28.2140   -3.9452    0.0000 N   0  0
   27.8064   -3.2369    0.0000 C   0  0
   26.9893   -3.2357    0.0000 C   0  0
   28.2161   -2.5298    0.0000 O   0  0
   33.8102   -0.6672    0.0000 F   0  0
   33.8176   -2.3037    0.0000 Cl  0  0
   26.5108   -2.5751    0.0000 C   0  0
   25.7332   -2.8265    0.0000 C   0  0
   25.7320   -3.6437    0.0000 C   0  0
   26.5089   -3.8973    0.0000 C   0  0
  5  1  1  0
  1  2  2  0
  2  3  1  0
  3  4  2  0
  4  6  1  0
  5  6  2  0
  6  7  1  0
  7  8  2  0
  8  9  1  0
  9  5  1  0
  4 10  1  0
 10 11  1  0
 11 12  2  0
 12 13  1  0
 13 14  2  0
 14 15  1  0
 15 16  2  0
 16 11  1  0
  8 17  1  0
 17 18  1  0
 18 19  1  0
 18 20  2  0
 14 21  1  0
 13 22  1  0
 19 23  1  0
 23 24  1  0
 24 25  1  0
 25 26  1  0
 26 19  1  0
M  END
> <chembl_id>
CHEMBL3233758

$$$$

  SciTegic12091611192D

 26 29  0  0  0  0            999 V2000
   -3.6217    1.4865    0.0000 N   0  0
   -7.5133    0.6990    0.0000 C   0  0
   -6.2219    1.4621    0.0000 N   0  0
   -4.9153    0.7255    0.0000 C   0  0
   -4.9001   -0.7745    0.0000 C   0  0
   -6.1914   -1.5377    0.0000 C   0  0
   -7.4980   -0.8010    0.0000 N   0  0
   -8.8205    1.4361    0.0000 N   0  0
   -8.8383    2.9360    0.0000 C   0  0
  -10.1461    3.6707    0.0000 C   0  0
  -11.4362    2.9055    0.0000 C   0  0
  -11.4185    1.4056    0.0000 C   0  0
  -10.1108    0.6709    0.0000 C   0  0
  -12.7462    3.6378    0.0000 O   0  0
  -13.7774    3.0242    0.0000 C   0  0
   -1.0028   -1.5132    0.0000 C   0  0
    0.2917   -0.7475    0.0000 C   0  0
    0.2917    0.7475    0.0000 C   0  0
   -1.0028    1.5132    0.0000 C   0  0
   -2.3155    0.7475    0.0000 C   0  0
   -2.3155   -0.7475    0.0000 N   0  0
    2.5889    0.0182    0.0000 C   0  0
    1.7138   -1.2033    0.0000 N   0  0
    1.7138    1.2033    0.0000 N   0  0
    2.1812    2.6271    0.0000 C   0  0
    3.3556    2.8737    0.0000 C   0  0
  2  3  1  0
  3  4  2  0
  4  5  1  0
  5  6  2  0
  6  7  1  0
  2  7  2  0
  8  9  1  0
  9 10  1  0
 10 11  1  0
 11 12  1  0
 12 13  1  0
  8 13  1  0
 14 15  1  0
 11 14  1  0
  2  8  1  0
  1  4  1  0
 16 17  1  0
 17 18  2  0
 18 19  1  0
 19 20  2  0
 20 21  1  0
 16 21  2  0
 22 23  2  0
 22 24  1  0
 17 23  1  0
 18 24  1  0
  1 20  1  0
 24 25  1  0
 25 26  1  0
M  END
> <chembl_id>
CHEMBL3736094

$$$$

  SciTegic05221516342D

 42 46  0  0  0  0            999 V2000
   27.7294   -4.7133    0.0000 C   0  0
   27.7283   -5.5328    0.0000 C   0  0
   28.4363   -5.9418    0.0000 N   0  0
   29.1460   -5.5323    0.0000 C   0  0
   29.1432   -4.7097    0.0000 N   0  0
   28.4345   -4.3044    0.0000 C   0  0
   28.4326   -3.4873    0.0000 C   0  0
   29.0923   -3.0050    0.0000 C   0  0
   28.8374   -2.2285    0.0000 N   0  0
   27.7701   -3.0089    0.0000 C   0  0
   28.0169   -2.2278    0.0000 N   0  0
   27.4669   -1.6268    0.0000 C   0  0
   26.6671   -1.8013    0.0000 C   0  0
   26.4203   -2.5824    0.0000 C   0  0
   26.9733   -3.1891    0.0000 C   0  0
   27.0216   -4.3048    0.0000 Cl  0  0
   29.8543   -5.9398    0.0000 N   0  0
   30.5614   -5.5301    0.0000 C   0  0
   31.2664   -5.9380    0.0000 C   0  0
   31.9730   -5.5290    0.0000 C   0  0
   31.9722   -4.7109    0.0000 C   0  0
   31.2588   -4.3036    0.0000 C   0  0
   30.5552   -4.7150    0.0000 C   0  0
   31.2665   -6.7552    0.0000 O   0  0
   30.5589   -7.1639    0.0000 C   0  0
   31.2547   -3.4864    0.0000 N   0  0
   30.5449   -3.0815    0.0000 C   0  0
   30.5407   -2.2643    0.0000 C   0  0
   29.8393   -3.4936    0.0000 O   0  0
   31.2464   -1.8521    0.0000 C   0  0
   32.6787   -4.3003    0.0000 N   0  0
   33.3858   -4.7124    0.0000 C   0  0
   34.0902   -4.3052    0.0000 C   0  0
   34.0921   -3.4877    0.0000 N   0  0
   33.3834   -3.0790    0.0000 C   0  0
   32.6728   -3.4878    0.0000 C   0  0
   34.8002   -3.0797    0.0000 C   0  0
   34.8009   -2.2625    0.0000 O   0  0
   35.5075   -3.4890    0.0000 C   0  0
   35.5068   -4.3061    0.0000 N   0  0
   36.2141   -4.7154    0.0000 C   0  0
   34.7987   -4.7141    0.0000 C   0  0
  1  2  2  0
  2  3  1  0
  3  4  2  0
  4  5  1  0
  5  6  2  0
  6  1  1  0
  7  8  1  0
  8  9  2  0
  9 11  1  0
 10  7  2  0
  6  7  1  0
 10 11  1  0
 10 15  1  0
 11 12  1  0
 12 13  2  0
 13 14  1  0
 14 15  2  0
  1 16  1  0
  4 17  1  0
 17 18  1  0
 18 19  2  0
 19 20  1  0
 20 21  2  0
 21 22  1  0
 22 23  2  0
 23 18  1  0
 19 24  1  0
 24 25  1  0
 22 26  1  0
 26 27  1  0
 27 28  1  0
 27 29  2  0
 28 30  2  0
 21 31  1  0
 31 32  1  0
 31 36  1  0
 32 33  1  0
 33 34  1  0
 34 35  1  0
 35 36  1  0
 34 37  1  0
 37 38  2  0
 37 39  1  0
 39 40  1  0
 40 41  1  0
 40 42  1  0
M  END
> <chembl_id>
CHEMBL3353395

$$$$

  SciTegic04301217312D

 20 22  0  0  0  0            999 V2000
   -4.1177  -20.2275    0.0000 C   0  0
   -4.1188  -21.0539    0.0000 C   0  0
   -3.4048  -21.4664    0.0000 C   0  0
   -3.4066  -19.8152    0.0000 C   0  0
   -2.6920  -20.2238    0.0000 C   0  0
   -2.6886  -21.0514    0.0000 C   0  0
   -1.9742  -21.4600    0.0000 C   0  0
   -1.9810  -19.8049    0.0000 C   0  0
   -1.2620  -20.2180    0.0000 C   0  0
   -1.2568  -21.0430    0.0000 C   0  0
   -0.5436  -21.4489    0.0000 C   0  0
    0.1689  -21.0340    0.0000 C   0  0
    0.1637  -20.2091    0.0000 C   0  0
   -0.5540  -19.7987    0.0000 C   0  0
   -1.9855  -18.9808    0.0000 O   0  0
   -1.9713  -22.2840    0.0000 O   0  0
   -0.5604  -18.9746    0.0000 O   0  0
    0.1501  -18.5571    0.0000 C   0  0
   -3.4091  -18.9911    0.0000 O   0  0
   -3.4043  -22.2904    0.0000 O   0  0
  5  4  2  0
  4  1  1  0
  5  6  1  0
  2  3  1  0
  3  6  2  0
  9 14  1  0
 10 11  1  0
 11 12  2  0
 12 13  1  0
 13 14  2  0
  1  2  2  0
  8 15  2  0
  5  8  1  0
  7 16  2  0
  6  7  1  0
 14 17  1  0
  7 10  1  0
 17 18  1  0
  9  8  1  0
  4 19  1  0
  9 10  2  0
  3 20  1  0
M  END
> <chembl_id>
CHEMBL1944921

$$$$

  SciTegic10311316262D

 57 62  0  0  0  0            999 V2000
    3.3274   -3.1831    0.0000 O   0  0
    2.8826   -2.4977    0.0000 S   0  0
    2.5113   -3.2255    0.0000 O   0  0
    1.4500   -3.4213    0.0000 O   0  0
    1.4728   -2.6045    0.0000 C   0  0
    2.1466   -2.1409    0.0000 C   0  0
    1.9163   -1.3570    0.0000 N   0  3
    1.0994   -1.3341    0.0000 O   0  0
    0.8253   -2.1040    0.0000 N   0  0
    3.5874   -2.0877    0.0000 C   0  0
    4.2936   -2.4973    0.0000 C   0  0
    4.9993   -2.0869    0.0000 C   0  0
    4.9969   -1.2689    0.0000 C   0  0
    4.2828   -0.8630    0.0000 C   0  0
    3.5799   -1.2757    0.0000 C   0  0
    7.0974   -7.5280    0.0000 C   0  0
    7.0963   -8.3476    0.0000 C   0  0
    7.8043   -8.7565    0.0000 C   0  0
    8.5140   -8.3471    0.0000 C   0  0
    8.5111   -7.5244    0.0000 C   0  0
    7.8025   -7.1192    0.0000 C   0  0
    6.3903   -7.1152    0.0000 N   0  0
    6.3921   -6.2971    0.0000 C   0  0
    5.6884   -5.8888    0.0000 C   0  0
    4.9784   -6.2940    0.0000 N   0  0
    4.9766   -7.1122    0.0000 C   0  0
    5.6848   -7.5250    0.0000 C   0  0
    4.2721   -5.8829    0.0000 C   0  0
    7.8041   -9.5737    0.0000 O   0  0
    7.0963   -9.9821    0.0000 C   0  0
    9.2223   -8.7546    0.0000 N   0  0
    9.9294   -8.3449    0.0000 C   0  0
   10.6344   -8.7528    0.0000 N   0  0
   11.3410   -8.3438    0.0000 C   0  0
   11.3402   -7.5257    0.0000 C   0  0
   10.6268   -7.1184    0.0000 C   0  0
    9.9232   -7.5298    0.0000 N   0  0
   12.0467   -7.1151    0.0000 Cl  0  0
   10.6227   -6.3012    0.0000 O   0  0
   11.3283   -5.8890    0.0000 C   0  0
   12.0386   -6.2964    0.0000 C   0  0
   12.7437   -5.8848    0.0000 C   0  0
   12.7400   -5.0668    0.0000 C   0  0
   12.0252   -4.6620    0.0000 C   0  0
   11.3230   -5.0758    0.0000 C   0  0
   13.4533   -6.2902    0.0000 N   0  0
   14.1591   -5.8783    0.0000 C   0  0
   14.8687   -6.2836    0.0000 C   0  0
   14.1553   -5.0611    0.0000 O   0  0
   15.5745   -5.8718    0.0000 C   0  0
    4.2750   -5.0657    0.0000 C   0  0
    3.5687   -4.6546    0.0000 O   0  0
    4.9841   -4.6597    0.0000 O   0  0
    2.8596   -5.0607    0.0000 C   0  0
    2.1533   -4.6496    0.0000 C   0  0
    2.1562   -3.8324    0.0000 C   0  0
    2.4928   -0.7718    0.0000 O   0  5
  2  1  2  0
  3  2  2  0
  4  5  1  0
  5  6  1  0
  6  7  2  0
  7  8  1  0
  8  9  1  0
  9  5  2  0
  6  2  1  0
  2 10  1  0
 10 11  2  0
 11 12  1  0
 12 13  2  0
 13 14  1  0
 14 15  2  0
 15 10  1  0
 16 17  2  0
 17 18  1  0
 18 19  2  0
 19 20  1  0
 20 21  2  0
 21 16  1  0
 22 23  1  0
 22 27  1  0
 23 24  1  0
 24 25  1  0
 25 26  1  0
 26 27  1  0
 16 22  1  0
 25 28  1  0
 18 29  1  0
 29 30  1  0
 19 31  1  0
 31 32  1  0
 32 33  2  0
 33 34  1  0
 34 35  2  0
 35 36  1  0
 36 37  2  0
 37 32  1  0
 35 38  1  0
 36 39  1  0
 39 40  1  0
 40 41  2  0
 41 42  1  0
 42 43  2  0
 43 44  1  0
 44 45  2  0
 45 40  1  0
 42 46  1  0
 46 47  1  0
 47 48  1  0
 47 49  2  0
 48 50  2  0
 28 51  1  0
 51 52  1  0
 51 53  2  0
 52 54  1  0
 54 55  1  0
 55 56  1  0
 56  4  1  0
  7 57  1  0
M  CHG  2   7   1  57  -1
M  END
> <chembl_id>
CHEMBL2381507

$$$$

  SciTegic06051315212D

 24 27  0  0  0  0            999 V2000
    1.0483   -3.1326    0.0000 O   0  0
    1.7623   -2.7198    0.0000 S   0  0
    1.0530   -2.3114    0.0000 O   0  0
    3.4033   -4.1367    0.0000 C   0  0
    4.2255   -4.1394    0.0000 C   0  0
    4.6337   -3.4257    0.0000 C   0  0
    4.2261   -2.7202    0.0000 C   0  0
    5.4541   -3.4259    0.0000 C   0  0
    5.8609   -4.1359    0.0000 C   0  0
    6.6856   -4.1376    0.0000 C   0  0
    7.0920   -3.4258    0.0000 C   0  0
    6.6843   -2.7234    0.0000 C   0  0
    5.8610   -2.7211    0.0000 C   0  0
    2.9925   -3.4278    0.0000 C   0  0
    3.4031   -2.7224    0.0000 C   0  0
    2.1718   -3.4261    0.0000 N   0  0
    2.1748   -2.0118    0.0000 C   0  0
    2.9925   -2.0103    0.0000 C   0  0
    3.2463   -1.2345    0.0000 N   0  0
    2.5796   -0.7590    0.0000 N   0  0
    1.9216   -1.2359    0.0000 C   0  0
    1.7510   -4.1422    0.0000 C   0  0
    7.9092   -3.4261    0.0000 C   0  0
    8.3176   -4.1339    0.0000 C   0  0
  2  1  2  0
  3  2  2  0
 14  4  2  0
  4  5  1  0
  5  6  2  0
  6  7  1  0
  7 15  2  0
  8  9  2  0
  9 10  1  0
 10 11  2  0
 11 12  1  0
 12 13  2  0
 13  8  1  0
  6  8  1  0
 14 15  1  0
 14 16  1  0
 15 18  1  0
 17  2  1  0
  2 16  1  0
 17 18  2  0
 18 19  1  0
 19 20  1  0
 20 21  2  0
 21 17  1  0
 16 22  1  0
 11 23  1  0
 23 24  1  0
M  END
> <chembl_id>
CHEMBL2333445

$$$$

  SciTegic05221516342D

 41 45  0  0  0  0            999 V2000
    1.4390  -16.4635    0.0000 C   0  0
    1.4378  -17.2830    0.0000 C   0  0
    2.1459  -17.6920    0.0000 N   0  0
    2.8555  -17.2825    0.0000 C   0  0
    2.8527  -16.4599    0.0000 N   0  0
    2.1441  -16.0546    0.0000 C   0  0
    2.1422  -15.2375    0.0000 C   0  0
    2.8018  -14.7552    0.0000 C   0  0
    2.5470  -13.9787    0.0000 N   0  0
    1.4797  -14.7591    0.0000 C   0  0
    1.7265  -13.9780    0.0000 N   0  0
    1.1765  -13.3770    0.0000 C   0  0
    0.3767  -13.5515    0.0000 C   0  0
    0.1299  -14.3326    0.0000 C   0  0
    0.6828  -14.9393    0.0000 C   0  0
    0.7312  -16.0551    0.0000 Cl  0  0
    3.5639  -17.6900    0.0000 N   0  0
    4.2710  -17.2803    0.0000 C   0  0
    4.9760  -17.6882    0.0000 C   0  0
    5.6826  -17.2792    0.0000 C   0  0
    5.6817  -16.4612    0.0000 C   0  0
    4.9684  -16.0538    0.0000 C   0  0
    4.2647  -16.4652    0.0000 C   0  0
    4.9761  -18.5054    0.0000 O   0  0
    4.2684  -18.9141    0.0000 C   0  0
    4.9642  -15.2367    0.0000 N   0  0
    4.2545  -14.8317    0.0000 C   0  0
    4.2503  -14.0145    0.0000 C   0  0
    3.5488  -15.2439    0.0000 O   0  0
    4.9559  -13.6023    0.0000 C   0  0
    6.3882  -16.0505    0.0000 N   0  0
    7.0954  -16.4626    0.0000 C   0  0
    7.7998  -16.0555    0.0000 C   0  0
    7.8017  -15.2379    0.0000 N   0  0
    7.0929  -14.8292    0.0000 C   0  0
    6.3823  -15.2380    0.0000 C   0  0
    8.5097  -14.8300    0.0000 C   0  0
    8.5104  -14.0128    0.0000 O   0  0
    9.2171  -15.2392    0.0000 C   0  0
    9.2163  -16.0564    0.0000 N   0  0
    9.9237  -16.4656    0.0000 C   0  0
  1  2  2  0
  2  3  1  0
  3  4  2  0
  4  5  1  0
  5  6  2  0
  6  1  1  0
  7  8  1  0
  8  9  2  0
  9 11  1  0
 10  7  2  0
  6  7  1  0
 10 11  1  0
 10 15  1  0
 11 12  1  0
 12 13  2  0
 13 14  1  0
 14 15  2  0
  1 16  1  0
  4 17  1  0
 17 18  1  0
 18 19  2  0
 19 20  1  0
 20 21  2  0
 21 22  1  0
 22 23  2  0
 23 18  1  0
 19 24  1  0
 24 25  1  0
 22 26  1  0
 26 27  1  0
 27 28  1  0
 27 29  2  0
 28 30  2  0
 21 31  1  0
 31 32  1  0
 31 36  1  0
 32 33  1  0
 33 34  1  0
 34 35  1  0
 35 36  1  0
 34 37  1  0
 37 38  2  0
 37 39  1  0
 39 40  1  0
 40 41  1  0
M  END
> <chembl_id>
CHEMBL3353399

$$$$

  SciTegic11131810082D

 32 34  0  0  0  0            999 V2000
    3.6331   -3.6060    0.0000 C   0  0
    2.5951   -3.0039    0.0000 N   0  0
    2.5973   -1.5031    0.0000 C   0  0
    3.6375   -0.9049    0.0000 O   0  0
    1.2990   -0.7500    0.0000 C   0  0
    1.2990    0.7500    0.0000 C   0  0
    0.0000    1.5000    0.0000 C   0  0
   -0.0031    3.0008    0.0000 O   0  0
   -1.3039    3.7494    0.0000 C   0  0
   -1.3092    5.2494    0.0000 C   0  0
   -2.6108    5.9949    0.0000 C   0  0
   -3.9073    5.2404    0.0000 C   0  0
   -5.2112    5.9836    0.0000 N   0  0
   -6.5072    5.2269    0.0000 C   0  0
   -6.5010    4.0269    0.0000 O   0  0
   -7.8111    5.9701    0.0000 N   0  0
   -9.1072    5.2134    0.0000 C   0  0
  -10.4114    5.9543    0.0000 C   0  0
  -11.7053    5.1953    0.0000 C   0  0
  -11.6949    3.6953    0.0000 C   0  0
  -12.7299    3.0882    0.0000 Cl  0  0
  -10.3907    2.9543    0.0000 C   0  0
   -9.0969    3.7133    0.0000 C   0  0
  -10.3803    1.4536    0.0000 C   0  0
  -11.4150    0.8457    0.0000 F   0  0
   -9.3367    0.8611    0.0000 F   0  0
  -10.3714    0.2536    0.0000 F   0  0
   -3.9021    3.7404    0.0000 C   0  0
   -2.6005    2.9949    0.0000 C   0  0
   -1.2990    0.7500    0.0000 C   0  0
   -1.2990   -0.7500    0.0000 C   0  0
    0.0000   -1.5000    0.0000 N   0  0
  1  2  1  0
  2  3  1  0
  3  4  2  0
  3  5  1  0
  5  6  2  0
  6  7  1  0
  7  8  1  0
  8  9  1  0
  9 10  2  0
 10 11  1  0
 11 12  2  0
 12 13  1  0
 13 14  1  0
 14 15  2  0
 14 16  1  0
 16 17  1  0
 17 18  2  0
 18 19  1  0
 19 20  2  0
 20 21  1  0
 20 22  1  0
 22 23  2  0
 23 17  1  0
 22 24  1  0
 24 25  1  0
 24 26  1  0
 24 27  1  0
 12 28  1  0
 28 29  2  0
 29  9  1  0
  7 30  2  0
 30 31  1  0
 31 32  2  0
 32  5  1  0
M  END
> <chembl_id>
CHEMBL1336

$$$$

  SciTegic01181116592D

 21 24  0  0  0  0            999 V2000
   -1.9397   -1.9879    0.0000 N   0  0
   -1.2225   -1.5742    0.0000 C   0  0
   -1.2254   -0.7429    0.0000 N   0  0
   -1.9415   -0.3333    0.0000 C   0  0
   -1.9439    0.4925    0.0000 N   0  0
   -2.6552   -1.5747    0.0000 C   0  0
   -2.6585   -0.7496    0.0000 C   0  0
   -3.4388   -1.8328    0.0000 S   0  0
   -3.9266   -1.1672    0.0000 C   0  0
   -3.4445   -0.4995    0.0000 C   0  0
   -3.7800    0.2477    0.0000 C   0  0
   -4.5984    0.3336    0.0000 C   0  0
   -5.0805   -0.3342    0.0000 C   0  0
   -4.7441   -1.0878    0.0000 C   0  0
   -1.2300    0.9075    0.0000 C   0  0
   -1.2325    1.7333    0.0000 C   0  0
   -0.5167    2.1438    0.0000 C   0  0
   -0.5188    2.9688    0.0000 C   0  0
   -1.2357    3.3804    0.0000 C   0  0
   -1.9520    2.9610    0.0000 C   0  0
   -1.9464    2.1373    0.0000 C   0  0
  4  7  1  0
  1  2  2  0
  4  5  1  0
  6  7  2  0
  6  1  1  0
  9 14  1  0
 10 11  1  0
 11 12  1  0
 12 13  1  0
 13 14  1  0
  2  3  1  0
  5 15  1  0
 15 16  1  0
  7 10  1  0
 16 17  2  0
  9  8  1  0
 17 18  1  0
  8  6  1  0
 18 19  2  0
  9 10  2  0
 19 20  1  0
  3  4  2  0
 20 21  2  0
 21 16  1  0
M  END
> <chembl_id>
CHEMBL1271895

$$$$

  SciTegic02271217242D

 34 37  0  0  0  0            999 V2000
   -0.8961  -10.7027    0.0000 N   0  0
   -0.1797  -10.2894    0.0000 C   0  0
   -0.1825   -9.4588    0.0000 N   0  0
   -0.8979   -9.0497    0.0000 C   0  0
   -1.6109  -10.2898    0.0000 C   0  0
   -1.6097   -9.4609    0.0000 C   0  0
   -2.3977   -9.2036    0.0000 N   0  0
   -2.8859   -9.8735    0.0000 C   0  0
   -2.3997  -10.5447    0.0000 C   0  0
   -0.8997   -8.2247    0.0000 N   0  0
   -0.1862   -7.8106    0.0000 C   0  0
    0.5261   -8.2245    0.0000 C   0  0
    1.2392   -7.8111    0.0000 C   0  0
    1.2378   -6.9853    0.0000 C   0  0
    0.5174   -6.5745    0.0000 C   0  0
   -0.1927   -6.9902    0.0000 C   0  0
    1.9544   -8.2224    0.0000 Cl  0  0
    1.9508   -6.5702    0.0000 O   0  0
   -2.6514   -8.4185    0.0000 C   0  0
    2.6668   -6.9802    0.0000 C   0  0
    2.6668   -7.8053    0.0000 C   0  0
    3.3819   -8.2152    0.0000 C   0  0
    4.0959   -7.8001    0.0000 C   0  0
    4.0903   -6.9708    0.0000 C   0  0
    3.3746   -6.5647    0.0000 C   0  0
    4.8018   -6.5533    0.0000 C   0  0
    5.5192   -6.9607    0.0000 F   0  0
    4.7960   -5.7283    0.0000 F   0  0
    5.5125   -6.1333    0.0000 F   0  0
   -3.4581   -8.2458    0.0000 C   0  0
   -3.7118   -7.4608    0.0000 S   0  0
   -4.5185   -7.2880    0.0000 C   0  0
   -4.7723   -6.5030    0.0000 C   0  0
   -5.5790   -6.3302    0.0000 O   0  0
 16 11  1  0
  6  7  1  0
 13 17  1  0
  7  8  1  0
 14 18  1  0
  8  9  2  0
  7 19  1  0
  9  5  1  0
 18 20  1  0
  4  6  1  0
 20 21  2  0
  4 10  1  0
 21 22  1  0
  5  6  2  0
 22 23  2  0
 10 11  1  0
 23 24  1  0
  1  2  2  0
 24 25  2  0
 25 20  1  0
 11 12  2  0
 24 26  1  0
  5  1  1  0
 26 27  1  0
 12 13  1  0
 26 28  1  0
  2  3  1  0
 26 29  1  0
 13 14  2  0
 19 30  1  0
 30 31  1  0
 14 15  1  0
 31 32  1  0
  3  4  2  0
 32 33  1  0
 15 16  2  0
 33 34  1  0
M  END
> <chembl_id>
CHEMBL1923014

$$$$

  SciTegic12201616162D

 30 33  0  0  0  0            999 V2000
    3.8942   -1.4964    0.0000 N   0  0
    5.1929   -0.7441    0.0000 C   0  0
    5.1908    0.4559    0.0000 S   0  0
    6.4942   -1.4919    0.0000 N   0  0
    7.7928   -0.7396    0.0000 C   0  0
    9.0941   -1.4873    0.0000 C   0  0
   12.9858    0.7740    0.0000 O   0  0
   12.9909   -0.7260    0.0000 C   0  0
   11.6945   -1.4805    0.0000 C   0  0
   10.3928   -0.7351    0.0000 N   0  0
   10.3877    0.7650    0.0000 C   0  0
   11.6841    1.5195    0.0000 C   0  0
   -1.2964    1.4973    0.0000 N   0  0
   -2.6111    0.7486    0.0000 C   0  0
   -2.6111   -0.7486    0.0000 N   0  0
   -1.2964   -1.4973    0.0000 C   0  0
    0.0000   -0.7486    0.0000 C   0  0
    1.2964   -1.4973    0.0000 C   0  0
    2.5929   -0.7486    0.0000 C   0  0
    2.5929    0.7486    0.0000 C   0  0
    1.2964    1.4973    0.0000 C   0  0
    0.0000    0.7486    0.0000 C   0  0
   -1.2907   -2.9981    0.0000 N   0  0
   -2.5870   -3.7544    0.0000 C   0  0
   -2.5835   -5.2544    0.0000 C   0  0
   -3.8807   -6.0076    0.0000 C   0  0
   -5.1815   -5.2608    0.0000 C   0  0
   -5.1852   -3.7608    0.0000 C   0  0
   -3.8880   -3.0076    0.0000 C   0  0
   -3.8777   -7.2076    0.0000 Br  0  0
  1  2  1  0
  2  3  2  0
  2  4  1  0
  5  6  1  0
  7  8  1  0
  8  9  1  0
  9 10  1  0
 10 11  1  0
 11 12  1  0
  7 12  1  0
  6 10  1  0
  4  5  1  0
 13 14  1  0
 14 15  2  0
 15 16  1  0
 16 17  2  0
 17 18  1  0
 18 19  2  0
 19 20  1  0
 20 21  2  0
 21 22  1  0
 13 22  2  0
 17 22  1  0
 24 25  1  0
 25 26  2  0
 26 27  1  0
 27 28  2  0
 28 29  1  0
 24 29  2  0
 23 24  1  0
 16 23  1  0
  1 19  1  0
 26 30  1  0
M  END
> <chembl_id>
CHEMBL3815163

$$$$

  SciTegic01181116592D

 27 30  0  0  0  0            999 V2000
    7.9105  -22.3507    0.0000 N   0  0
    8.6275  -21.9369    0.0000 C   0  0
    8.6247  -21.1057    0.0000 N   0  0
    7.9087  -20.6963    0.0000 C   0  0
    7.9062  -19.8706    0.0000 N   0  0
    7.1951  -21.9374    0.0000 C   0  0
    7.1917  -21.1124    0.0000 C   0  0
    6.4115  -22.1954    0.0000 S   0  0
    5.9239  -21.5301    0.0000 C   0  0
    6.4059  -20.8623    0.0000 C   0  0
    6.0705  -20.1152    0.0000 C   0  0
    5.2521  -20.0294    0.0000 C   0  0
    4.7701  -20.6967    0.0000 N   0  0
    5.1064  -21.4506    0.0000 C   0  0
    8.6201  -19.4555    0.0000 C   0  0  1  0  0  0
    9.3364  -19.8663    0.0000 C   0  0
    8.6176  -18.6298    0.0000 C   0  0
    9.3366  -20.6893    0.0000 C   0  0
   10.0521  -21.0999    0.0000 C   0  0
   10.7669  -20.6849    0.0000 C   0  0
   10.7618  -19.8550    0.0000 C   0  0
   10.0458  -19.4480    0.0000 C   0  0
    9.3314  -18.2149    0.0000 O   0  0
    3.9446  -20.7148    0.0000 C   0  0
    3.5162  -20.0090    0.0000 O   0  0
    3.5476  -21.4388    0.0000 C   0  0
    2.7221  -21.4569    0.0000 C   0  0
 10 11  1  0
 11 12  1  0
 12 13  1  0
 13 14  1  0
  2  3  1  0
  5 15  1  0
 15 16  1  0
  7 10  1  0
 15 17  1  6
  9  8  1  0
 16 18  2  0
  8  6  1  0
 18 19  1  0
  9 10  2  0
 19 20  2  0
  3  4  2  0
 20 21  1  0
  4  7  1  0
 21 22  2  0
 22 16  1  0
  1  2  2  0
 17 23  1  0
  4  5  1  0
 13 24  1  0
  6  7  2  0
 24 25  2  0
  6  1  1  0
 24 26  1  0
  9 14  1  0
 26 27  2  0
M  END
> <chembl_id>
CHEMBL1272061

$$$$

  SciTegic12091611192D

 27 30  0  0  0  0            999 V2000
   -3.6217    1.4865    0.0000 N   0  0
   -7.5133    0.6990    0.0000 C   0  0
   -6.2219    1.4621    0.0000 N   0  0
   -4.9153    0.7255    0.0000 C   0  0
   -4.9001   -0.7745    0.0000 C   0  0
   -6.1914   -1.5377    0.0000 C   0  0
   -7.4980   -0.8010    0.0000 N   0  0
   -8.8205    1.4361    0.0000 N   0  0
   -8.8383    2.9360    0.0000 C   0  0
  -10.1461    3.6707    0.0000 C   0  0
  -11.4362    2.9055    0.0000 C   0  0
  -11.4185    1.4056    0.0000 C   0  0
  -10.1108    0.6709    0.0000 C   0  0
  -12.4824    3.4932    0.0000 O   0  0
   -1.0028   -1.5132    0.0000 C   0  0
    0.2917   -0.7475    0.0000 C   0  0
    0.2917    0.7475    0.0000 C   0  0
   -1.0028    1.5132    0.0000 C   0  0
   -2.3155    0.7475    0.0000 C   0  0
   -2.3155   -0.7475    0.0000 N   0  0
    2.5889    0.0182    0.0000 C   0  0
    1.7138   -1.2033    0.0000 N   0  0
    1.7138    1.2033    0.0000 N   0  0
    3.7889    0.0269    0.0000 C   0  0
    2.1812    2.6271    0.0000 C   0  0
    3.3556    2.8737    0.0000 C   0  0
    1.3808    3.5211    0.0000 C   0  0
  2  3  1  0
  3  4  2  0
  4  5  1  0
  5  6  2  0
  6  7  1  0
  2  7  2  0
  8  9  1  0
  9 10  1  0
 10 11  1  0
 11 12  1  0
 12 13  1  0
  8 13  1  0
 11 14  1  0
  2  8  1  0
  1  4  1  0
 15 16  1  0
 16 17  2  0
 17 18  1  0
 18 19  2  0
 19 20  1  0
 15 20  2  0
 21 22  2  0
 21 23  1  0
 16 22  1  0
 17 23  1  0
  1 19  1  0
 21 24  1  0
 23 25  1  0
 25 26  1  0
 25 27  1  0
M  END
> <chembl_id>
CHEMBL3735533

$$$$

  SciTegic04091414352D

 37 41  0  0  0  0            999 V2000
    9.0954   -5.4468    0.0000 N   0  0
    9.8019   -5.8584    0.0000 C   0  0
    9.7987   -6.6761    0.0000 O   0  0
   10.5116   -5.4524    0.0000 N   0  0
   11.2181   -5.8640    0.0000 C   0  0
   11.9278   -5.4579    0.0000 C   0  0
   12.6343   -5.8695    0.0000 N   0  0
   13.3441   -5.4635    0.0000 C   0  0
   14.0506   -5.8751    0.0000 C   0  0
   14.0474   -6.6927    0.0000 C   0  0
   13.3377   -7.0988    0.0000 C   0  0
   12.6311   -6.6872    0.0000 C   0  0
    6.2565   -7.0711    0.0000 N   0  0
    5.5500   -6.6595    0.0000 C   0  0
    5.5532   -5.8418    0.0000 N   0  0
    6.2629   -5.4357    0.0000 C   0  0
    6.9694   -5.8473    0.0000 C   0  0
    7.6791   -5.4413    0.0000 C   0  0
    8.3857   -5.8529    0.0000 C   0  0
    8.3825   -6.6706    0.0000 C   0  0
    7.6727   -7.0766    0.0000 C   0  0
    6.9662   -6.6650    0.0000 C   0  0
    9.0890   -7.0822    0.0000 O   0  0
    8.6720   -9.1565    0.0000 O   0  0
    8.4224   -8.3778    0.0000 C   0  0
    9.0858   -7.8998    0.0000 C   0  0  2  0  0  0
    9.7454   -8.3830    0.0000 C   0  0
    9.4897   -9.1597    0.0000 C   0  0
    6.2661   -4.6181    0.0000 N   0  0
    5.5596   -4.2065    0.0000 C   0  0
    4.8499   -4.6125    0.0000 C   0  0
    4.1434   -4.2009    0.0000 C   0  0
    4.1466   -3.3833    0.0000 C   0  0
    4.8563   -2.9772    0.0000 C   0  0
    5.5628   -3.3888    0.0000 C   0  0
    3.4401   -2.9717    0.0000 F   0  0
    3.4337   -4.6070    0.0000 Cl  0  0
  1  2  1  0
  2  3  2  0
  2  4  1  0
  5  6  1  0
  7  8  1  0
  8  9  1  0
  9 10  1  0
 10 11  1  0
 11 12  1  0
  7 12  1  0
  6  7  1  0
  4  5  1  0
 13 14  1  0
 14 15  2  0
 15 16  1  0
 16 17  2  0
 17 18  1  0
 18 19  2  0
 19 20  1  0
 20 21  2  0
 21 22  1  0
 13 22  2  0
 17 22  1  0
 24 25  1  0
 25 26  1  0
 26 27  1  0
 27 28  1  0
 24 28  1  0
 26 23  1  1
 20 23  1  0
 30 31  1  0
 31 32  2  0
 32 33  1  0
 33 34  2  0
 34 35  1  0
 30 35  2  0
 33 36  1  0
 32 37  1  0
 29 30  1  0
 16 29  1  0
  1 19  1  0
M  END
> <chembl_id>
CHEMBL3092309

$$$$

  SciTegic11201309402D

 58 65  0  0  0  0            999 V2000
   -5.3036    1.3047    0.0000 C   0  0
   -5.4049    0.4836    0.0000 C   0  0
   -4.7454   -0.0128    0.0000 C   0  0
   -4.5470    1.6282    0.0000 C   0  0
   -3.8864    1.1355    0.0000 C   0  0
   -3.9868    0.3105    0.0000 C   0  0
   -3.2332   -0.0399    0.0000 N   0  0
   -3.0708    1.2948    0.0000 C   0  0
   -2.6703    0.5676    0.0000 C   0  0
   -1.4135    1.2626    0.0000 C   0  0
   -1.8452    0.5492    0.0000 C   0  0
   -0.6017    1.0723    0.0000 C   0  0
   -0.5317    0.2415    0.0000 C   0  0
    0.2215   -0.1115    0.0000 C   0  0
    0.9052    0.3651    0.0000 C   0  0
    0.8310    1.1987    0.0000 C   0  0
    0.0775    1.5480    0.0000 C   0  0
   -2.6459    2.0028    0.0000 C   0  0
   -1.8165    1.9871    0.0000 C   0  0
   -1.5452    2.7710    0.0000 C   0  0
   -2.2070    3.2713    0.0000 N   0  0
   -2.8871    2.7965    0.0000 C   0  0
   -0.7559    3.0110    0.0000 O   0  0
   -3.0167   -0.8958    0.0000 C   0  0  2  0  0  0
   -3.0167   -1.7208    0.0000 C   0  0  1  0  0  0
   -2.3046   -2.1292    0.0000 C   0  0  1  0  0  0
   -1.5926   -1.7208    0.0000 C   0  0
   -1.5926   -0.8958    0.0000 C   0  0  1  0  0  0
   -2.3046   -0.4792    0.0000 O   0  0
   -1.3833   -0.0958    0.0000 N   0  0
   -2.3046   -2.9542    0.0000 N   0  0
   -1.5902   -3.3667    0.0000 C   0  0
   -3.7305   -2.1344    0.0000 O   0  0
   -4.4456   -1.7229    0.0000 C   0  0
   -3.8417   -0.8917    0.0000 C   0  0
   -3.0191   -3.3667    0.0000 C   0  0
   -3.7336   -2.9542    0.0000 O   0  0
   -3.0191   -4.1917    0.0000 C   0  0
   -2.3046   -4.6042    0.0000 C   0  0
   -2.3046   -5.4292    0.0000 C   0  0
   -1.5902   -5.8417    0.0000 N   0  0
   -3.0191   -5.8417    0.0000 O   0  0
   -0.8757   -5.4292    0.0000 C   0  0
   -0.1612   -5.8417    0.0000 C   0  0
    0.5532   -5.4292    0.0000 C   0  0
    1.2677   -5.8417    0.0000 N   0  0
    0.5532   -4.6042    0.0000 O   0  0
    1.9822   -5.4292    0.0000 C   0  0
    2.6966   -5.8417    0.0000 C   0  0
    3.4111   -5.4292    0.0000 C   0  0
    4.1256   -5.8417    0.0000 N   0  0
    3.4111   -4.6042    0.0000 O   0  0
    4.8401   -5.4292    0.0000 C   0  0
    5.5545   -5.8417    0.0000 C   0  0
    6.2690   -5.4292    0.0000 C   0  0
    6.9835   -5.8417    0.0000 N   0  0
    6.2690   -4.6042    0.0000 O   0  0
   -0.6008   -1.0234    0.0000 H   0  0
  5  6  1  0
 11 30  1  0
 30 13  1  0
 12 10  1  0
 24 29  1  0
 25 26  1  0
 26 27  1  0
 27 28  1  0
 28 29  1  0
 28 30  1  0
  2  3  1  0
 26 31  1  1
 12 13  2  0
 31 32  1  0
  3  6  2  0
 25 33  1  1
 13 14  1  0
 33 34  1  0
  6  7  1  0
 24 35  1  6
 14 15  2  0
 31 36  1  0
  7  9  1  0
 36 37  2  0
 15 16  1  0
 36 38  1  0
  8  5  1  0
 38 39  1  0
 16 17  2  0
 39 40  1  0
 17 12  1  0
 40 41  1  0
 18 19  2  0
 40 42  2  0
  1  2  2  0
 41 43  1  0
  5  4  2  0
 43 44  1  0
  8  9  2  0
 44 45  1  0
  9 11  1  0
 45 46  1  0
 10 19  1  0
 45 47  2  0
 19 20  1  0
 46 48  1  0
 20 21  1  0
 48 49  1  0
 21 22  1  0
 49 50  1  0
 22 18  1  0
 50 51  1  0
 18  8  1  0
 50 52  2  0
 20 23  2  0
 51 53  1  0
 10 11  2  0
 53 54  1  0
  7 24  1  0
 54 55  1  0
 24 25  1  0
 55 56  1  0
  4  1  1  0
 55 57  2  0
 28 58  1  6
M  END
> <chembl_id>
CHEMBL595546

$$$$

  SciTegic05221516342D

 32 36  0  0  0  0            999 V2000
   19.0142  -26.0590    0.0000 C   0  0
   19.8314  -26.0590    0.0000 C   0  0
   20.2400  -26.7681    0.0000 C   0  0
   19.8314  -27.4730    0.0000 C   0  0
   19.0142  -27.4730    0.0000 C   0  0
   18.6056  -26.7681    0.0000 N   0  0
   21.0384  -26.5973    0.0000 N   0  0
   20.3792  -25.4525    0.0000 C   0  0
   21.1265  -25.7869    0.0000 C   0  0
   18.6056  -28.1821    0.0000 N   0  0
   22.7180  -24.3930    0.0000 N   0  0
   23.1266  -25.0980    0.0000 N   0  0
   22.5788  -25.7086    0.0000 C   0  0
   21.8315  -25.3742    0.0000 C   0  0
   21.9196  -24.5638    0.0000 C   0  0
   16.5626  -27.4730    0.0000 C   0  0
   17.3798  -27.4730    0.0000 N   0  0
   17.7884  -28.1821    0.0000 C   0  0
   17.3798  -28.8912    0.0000 C   0  0
   16.5626  -28.8912    0.0000 C   0  0
   16.1540  -28.1821    0.0000 N   0  0
   16.1540  -26.7681    0.0000 N   0  0
   15.3368  -26.7681    0.0000 C   0  0
   14.9282  -26.0590    0.0000 C   0  0
   15.3368  -25.3499    0.0000 C   0  0
   16.1540  -25.3499    0.0000 C   0  0
   16.5626  -26.0590    0.0000 C   0  0
   14.9282  -24.6449    0.0000 O   0  0
   14.1110  -24.6449    0.0000 C   0  0
   21.6448  -27.1452    0.0000 C   0  0
   22.4363  -26.9320    0.0000 C   0  0
   21.4741  -27.9436    0.0000 C   0  0
  1  2  1  0
  2  3  2  0
  3  4  1  0
  4  5  2  0
  5  6  1  0
  1  6  2  0
  8  9  2  0
  7  9  1  0
  2  8  1  0
  3  7  1  0
  5 10  1  0
 11 12  1  0
 12 13  2  0
 13 14  1  0
 14 15  2  0
 11 15  1  0
  9 14  1  0
 16 17  1  0
 17 18  2  0
 18 19  1  0
 19 20  2  0
 20 21  1  0
 16 21  2  0
 22 23  1  0
 23 24  1  0
 24 25  1  0
 25 26  1  0
 26 27  1  0
 22 27  1  0
 28 29  1  0
 25 28  1  0
 16 22  1  0
 10 18  1  0
 30 31  1  0
 30 32  1  0
  7 30  1  0
M  END
> <chembl_id>
CHEMBL3354187

$$$$

  SciTegic01161211252D

 43 49  0  0  0  0            999 V2000
    7.3921   -9.6968    0.0000 N   0  0
    8.1037   -9.2794    0.0000 C   0  0
    8.0980   -8.4545    0.0000 O   0  0
    8.8211   -9.6870    0.0000 C   0  0
    8.8268  -10.5120    0.0000 C   0  0
    8.1138  -10.9269    0.0000 C   0  0
    8.1175  -11.7483    0.0000 C   0  0
    8.8330  -12.1597    0.0000 C   0  0
    9.5464  -11.7434    0.0000 C   0  0
    9.5443  -10.9158    0.0000 C   0  0
    6.6788   -8.4613    0.0000 C   0  0
    5.9641   -8.0444    0.0000 C   0  0
    5.2479   -8.4548    0.0000 C   0  0
    5.2450   -9.2819    0.0000 C   0  0
    5.9644   -9.6970    0.0000 C   0  0
    6.6777   -9.2842    0.0000 C   0  0
    4.5317   -9.6949    0.0000 C   0  0
    3.7784   -9.3576    0.0000 C   0  0
    4.4442  -10.5152    0.0000 N   0  0
    3.6370  -10.6856    0.0000 C   0  0
    3.2252   -9.9727    0.0000 N   0  0
    2.4199  -10.1441    0.0000 C   0  0
    2.3340  -10.9629    0.0000 C   0  0
    3.0862  -11.2975    0.0000 S   0  0
    3.7699   -8.5338    0.0000 C   0  0
    4.4821   -8.1153    0.0000 C   0  0
    4.4748   -7.2911    0.0000 C   0  0
    3.0539   -8.1309    0.0000 N   0  0
    3.0430   -7.3081    0.0000 C   0  0
    3.7572   -6.8807    0.0000 N   0  0
    2.3227   -6.9059    0.0000 N   0  0
    2.3108   -6.0810    0.0000 C   0  0
    3.0191   -5.6636    0.0000 C   0  0
    3.0076   -4.8395    0.0000 C   0  0
    2.2867   -4.4365    0.0000 C   0  0
    1.5759   -4.8637    0.0000 C   0  0
    1.5910   -5.6865    0.0000 C   0  0
    2.2737   -3.6116    0.0000 N   0  0
    2.9856   -3.1931    0.0000 C   0  0
    2.9746   -2.3717    0.0000 C   0  0
    2.2555   -1.9666    0.0000 O   0  0
    1.5458   -2.3891    0.0000 C   0  0
    1.5551   -3.2167    0.0000 C   0  0
  1  2  1  0
  2  3  2  0
  2  4  1  0
  4  5  1  0
  5  6  1  0
  5 10  1  0
  6  7  1  0
  7  8  1  0
  8  9  1  0
  9 10  1  0
 19 17  1  0
 14 17  1  0
 20 21  1  0
 14 15  1  0
 12 13  1  0
 29 31  1  0
 15 16  2  0
 31 32  1  0
 16 11  1  0
 32 33  2  0
 17 18  2  0
 33 34  1  0
 21 22  1  0
 34 35  2  0
 22 23  2  0
 35 36  1  0
 23 24  1  0
 36 37  2  0
 37 32  1  0
 24 20  1  0
 35 38  1  0
 38 39  1  0
 11 12  2  0
 13 14  2  0
 25 26  2  0
 26 27  1  0
 38 43  1  0
 39 40  1  0
 40 41  1  0
 41 42  1  0
 42 43  1  0
 27 30  2  0
 18 21  1  0
 29 28  2  0
 28 25  1  0
 18 25  1  0
 29 30  1  0
 20 19  2  0
 16  1  1  0
M  END
> <chembl_id>
CHEMBL1090352

$$$$

  SciTegic08011209522D

 40 44  0  0  0  0            999 V2000
    5.9569  -14.6791    0.0000 N   0  0
    5.9557  -15.5065    0.0000 C   0  0
    6.6706  -15.9194    0.0000 N   0  0
    6.6688  -14.2664    0.0000 C   0  0
    7.3841  -14.6755    0.0000 C   0  0
    7.3876  -15.5086    0.0000 C   0  0
    8.1067  -15.9199    0.0000 N   0  0
    8.8271  -15.5027    0.0000 C   0  0
    8.8237  -14.6696    0.0000 N   0  0
    8.0999  -14.2537    0.0000 C   0  0
    8.1107  -16.7414    0.0000 C   0  0
    7.3957  -17.1553    0.0000 C   0  0
    7.3976  -17.9795    0.0000 C   0  0
    8.1138  -18.3909    0.0000 C   0  0
    8.8295  -17.9720    0.0000 C   0  0
    8.8241  -17.1491    0.0000 C   0  0
    5.2409  -15.9184    0.0000 N   0  0
    5.2403  -16.7434    0.0000 C   0  0
    4.5254  -17.1538    0.0000 C   0  0
    4.5244  -17.9780    0.0000 C   0  0
    5.2391  -18.3919    0.0000 C   0  0
    5.9562  -17.9756    0.0000 C   0  0
    5.9537  -17.1527    0.0000 C   0  0
    9.5427  -15.9132    0.0000 O   0  0
    9.5465  -18.3800    0.0000 N   0  0
    9.5517  -19.2050    0.0000 C   0  0
   10.2687  -19.6130    0.0000 C   0  0
    8.8398  -19.6220    0.0000 O   0  0
   10.2739  -20.4380    0.0000 C   0  0
    5.2395  -19.2169    0.0000 N   0  0
    9.5369  -14.2549    0.0000 C   0  0
    4.5226  -19.6265    0.0000 C   0  0
    4.5211  -20.4479    0.0000 C   0  0
    5.2339  -20.8639    0.0000 N   0  0
    5.9500  -20.4522    0.0000 C   0  0
    5.9532  -19.6246    0.0000 C   0  0
    5.2312  -21.6889    0.0000 C   0  0
    3.8117  -16.7400    0.0000 O   0  0
    3.8132  -15.9150    0.0000 C   0  0
    3.0995  -15.5011    0.0000 C   0  0
 18 19  2  0
  7  8  1  0
 19 20  1  0
  8  9  1  0
 20 21  2  0
  9 10  1  0
 21 22  1  0
  5  6  1  0
 22 23  2  0
 23 18  1  0
  8 24  2  0
 11 12  2  0
 15 25  1  0
  2  3  1  0
 25 26  1  0
 12 13  1  0
 26 27  1  0
  3  6  2  0
 26 28  2  0
 13 14  2  0
 27 29  2  0
  1  2  2  0
 21 30  1  0
 14 15  1  0
  9 31  1  0
 30 32  1  0
  5  4  2  0
 15 16  2  0
 16 11  1  0
  7 11  1  0
  4  1  1  0
 30 36  1  0
 32 33  1  0
 33 34  1  0
 34 35  1  0
 35 36  1  0
  2 17  1  0
 34 37  1  0
  5 10  1  0
 19 38  1  0
 17 18  1  0
 38 39  1  0
  6  7  1  0
 39 40  1  0
M  END
> <chembl_id>
CHEMBL2029430

$$$$

  SciTegic12161615062D

 32 35  0  0  0  0            999 V2000
    1.2990   -0.7500    0.0000 C   0  0
    1.2990    0.7500    0.0000 C   0  0
    0.0000    1.5000    0.0000 C   0  0
   -1.2990    0.7500    0.0000 C   0  0
   -1.2990   -0.7500    0.0000 C   0  0
    0.0000   -1.5000    0.0000 N   0  0
    2.5972    1.5031    0.0000 C   0  0
    3.6375    0.9049    0.0000 O   0  0
    2.5951    3.0039    0.0000 N   0  0
    2.3383   -1.3500    0.0000 O   0  0
   -0.0031    3.0008    0.0000 N   0  0
   -1.3039    3.7494    0.0000 C   0  0
   -1.3092    5.2494    0.0000 C   0  0
   -2.6108    5.9949    0.0000 C   0  0
   -3.9073    5.2404    0.0000 C   0  0
   -3.9021    3.7404    0.0000 C   0  0
   -2.6005    2.9949    0.0000 C   0  0
   -0.0136    6.0070    0.0000 O   0  0
   -0.0195    7.2070    0.0000 C   0  0
    3.8933    3.7570    0.0000 C   0  0
    3.8933    5.2571    0.0000 C   0  0
    5.1924    6.0071    0.0000 C   0  0
    6.4914    5.2571    0.0000 C   0  0
    6.4915    3.7571    0.0000 C   0  0
    5.1925    3.0071    0.0000 C   0  0
    7.7911    6.0075    0.0000 C   0  0
    7.7935    7.5076    0.0000 C   0  0
    9.0937    8.2556    0.0000 C   0  0
   10.3916    7.5036    0.0000 N   0  0
   10.3893    6.0036    0.0000 C   0  0
    9.0891    5.2556    0.0000 C   0  0
   11.4318    8.1019    0.0000 C   0  0
  1  2  1  0
  2  3  2  0
  3  4  1  0
  4  5  2  0
  5  6  1  0
  1  6  1  0
  7  8  2  0
  7  9  1  0
  2  7  1  0
  1 10  2  0
  3 11  1  0
 11 12  1  0
 12 13  2  0
 13 14  1  0
 14 15  2  0
 15 16  1  0
 16 17  2  0
 17 12  1  0
 13 18  1  0
 18 19  1  0
  9 20  1  0
 20 21  2  0
 21 22  1  0
 22 23  2  0
 23 24  1  0
 24 25  2  0
 25 20  1  0
 23 26  1  0
 26 27  1  0
 26 31  1  0
 27 28  1  0
 28 29  1  0
 29 30  1  0
 30 31  1  0
 29 32  1  0
M  END
> <chembl_id>
CHEMBL3781897

$$$$

  SciTegic01061414252D

 33 36  0  0  0  0            999 V2000
    1.7398  -10.7513    0.0000 C   0  0
    1.7398  -11.5685    0.0000 C   0  0
    2.5570  -11.5685    0.0000 O   0  0
    2.5570  -10.7513    0.0000 O   0  0
    7.5315  -11.9195    0.0000 N   0  0
    8.2374  -11.5006    0.0000 C   0  0
    8.2276  -10.6798    0.0000 N   0  0
    7.5119  -10.2779    0.0000 C   0  0
    6.8059  -10.6968    0.0000 C   0  0
    6.0901  -10.2949    0.0000 C   0  0
    5.3842  -10.7138    0.0000 C   0  0
    5.3940  -11.5346    0.0000 C   0  0
    6.1098  -11.9365    0.0000 C   0  0
    6.8157  -11.5176    0.0000 C   0  0
    4.6881  -11.9535    0.0000 O   0  0
    4.6684  -10.3118    0.0000 N   0  0
    3.9625  -10.7308    0.0000 C   0  0
    3.9723  -11.5516    0.0000 C   0  0
    7.5020   -9.4570    0.0000 N   0  0
    8.2080   -9.0381    0.0000 C   0  0
    8.1982   -8.2173    0.0000 C   0  0
    8.9041   -7.7984    0.0000 C   0  0
    9.6199   -8.2003    0.0000 C   0  0
    9.6297   -9.0211    0.0000 C   0  0
    8.9238   -9.4401    0.0000 C   0  0
    3.2499  -10.3306    0.0000 C   0  0
    3.2695  -11.9686    0.0000 C   0  0
    4.6587   -9.4947    0.0000 C   0  0
    5.3614   -9.0777    0.0000 O   0  0
    3.9461   -9.0946    0.0000 C   0  0
    3.2434   -9.5116    0.0000 C   0  0
   10.3415   -9.4258    0.0000 Cl  0  0
   10.3227   -7.7833    0.0000 F   0  0
  1  2  1  0
  2  3  1  0
  4  1  1  0
  5  6  1  0
  6  7  2  0
  7  8  1  0
  8  9  2  0
  9 10  1  0
 10 11  2  0
 11 12  1  0
 12 13  2  0
 13 14  1  0
  5 14  2  0
  9 14  1  0
 16 17  1  0
 15 18  1  0
 11 16  1  0
 12 15  1  0
  8 19  1  0
 20 21  1  0
 21 22  2  0
 22 23  1  0
 23 24  2  0
 24 25  1  0
 20 25  2  0
 19 20  1  0
 17 26  1  0
 26  4  1  0
 18 27  1  0
 27  3  1  0
 16 28  1  0
 28 29  2  0
 28 30  1  0
 30 31  2  0
 24 32  1  0
 23 33  1  0
M  END
> <chembl_id>
CHEMBL2441556

$$$$

          11280715532D 1   1.00000     0.00000     0

 34 35  0     0  0            999 V2000
    8.3813  -15.6004    0.0000 C   0  0  0  0  0  0           0  0  0
    9.1030  -15.2008    0.0000 C   0  0  0  0  0  0           0  0  0
    9.8099  -15.6261    0.0000 C   0  0  0  0  0  0           0  0  0
   10.5316  -15.2264    0.0000 C   0  0  0  0  0  0           0  0  0
   11.2386  -15.6517    0.0000 C   0  0  0  0  0  0           0  0  0
   10.5465  -14.4016    0.0000 O   0  0  0  0  0  0           0  0  0
   11.9604  -15.2521    0.0000 C   0  0  0  0  0  0           0  0  0
   12.6673  -15.6773    0.0000 C   0  0  0  0  0  0           0  0  0
   13.3890  -15.2778    0.0000 C   0  0  0  0  0  0           0  0  0
   14.0959  -15.7033    0.0000 C   0  0  0  0  0  0           0  0  0
   11.9531  -14.4235    0.0000 O   0  0  0  0  0  0           0  0  0
    7.6770  -15.1751    0.0000 C   0  0  0  0  0  0           0  0  0
    6.9557  -15.5740    0.0000 C   0  0  0  0  0  0           0  0  0
    6.9404  -16.3998    0.0000 C   0  0  0  0  0  0           0  0  0
    7.6524  -16.8249    0.0000 C   0  0  0  0  0  0           0  0  0
    8.3707  -16.4235    0.0000 C   0  0  0  0  0  0           0  0  0
    6.2192  -16.8003    0.0000 O   0  0  0  0  0  0           0  0  0
    6.2490  -15.1485    0.0000 O   0  0  0  0  0  0           0  0  0
    6.2642  -14.3236    0.0000 C   0  0  0  0  0  0           0  0  0
   14.0759  -16.5282    0.0000 C   0  0  0  0  0  0           0  0  0
   14.7819  -16.9535    0.0000 C   0  0  0  0  0  0           0  0  0
   15.5047  -16.5540    0.0000 C   0  0  0  0  0  0           0  0  0
   15.5173  -15.7248    0.0000 C   0  0  0  0  0  0           0  0  0
   14.8105  -15.3032    0.0000 C   0  0  0  0  0  0           0  0  0
   16.2377  -15.3229    0.0000 O   0  0  0  0  0  0           0  0  0
   16.9459  -15.7459    0.0000 C   0  0  0  0  0  0           0  0  0
   16.2121  -16.9786    0.0000 O   0  0  0  0  0  0           0  0  0
   11.2238  -16.4766    0.0000 C   0  0  0  0  0  0           0  0  0
   10.5020  -16.8762    0.0000 C   0  0  0  0  0  0           0  0  0
   10.4872  -17.7011    0.0000 C   0  0  0  0  0  0           0  0  0
    9.7679  -18.1026    0.0000 O   0  0  0  0  0  0           0  0  0
   11.1967  -18.1282    0.0000 O   0  0  0  0  0  0           0  0  0
    9.0595  -17.6798    0.0000 C   0  0  0  0  0  0           0  0  0
    8.3392  -18.0819    0.0000 C   0  0  0  0  0  0           0  0  0
 14 17  1  0     0  0
  8  9  2  0     0  0
 13 18  1  0     0  0
  4  5  1  0     0  0
 18 19  1  0     0  0
  9 10  1  0     0  0
 10 20  2  0     0  0
  2  3  2  0     0  0
 20 21  1  0     0  0
  7 11  1  0     0  0
 21 22  2  0     0  0
  4  6  2  0     0  0
 22 23  1  0     0  0
  1 12  2  0     0  0
 23 24  2  0     0  0
 24 10  1  0     0  0
  1  2  1  0     0  0
 23 25  1  0     0  0
 12 13  1  0     0  0
 25 26  1  0     0  0
  5  7  2  0     0  0
 22 27  1  0     0  0
 13 14  2  0     0  0
  5 28  1  0     0  0
  3  4  1  0     0  0
 28 29  1  0     0  0
 14 15  1  0     0  0
 29 30  1  0     0  0
  7  8  1  0     0  0
 15 16  2  0     0  0
 30 31  1  0     0  0
 30 32  2  0     0  0
 16  1  1  0     0  0
 31 33  1  0     0  0
 33 34  1  0     0  0
M  END
> <chembl_id>
CHEMBL211337

$$$$

  SciTegic12131613482D

 26 30  0  0  0  0            999 V2000
    0.8955    2.0810    0.0000 C   0  0
    1.7138    1.2033    0.0000 C   0  0
    2.8908    1.4370    0.0000 C   0  0
   -1.0028    1.5132    0.0000 N   0  0
   -2.3155    0.7475    0.0000 C   0  0
   -2.3155   -0.7475    0.0000 N   0  0
   -1.0028   -1.5132    0.0000 C   0  0
    0.2917    0.7475    0.0000 C   0  0
    0.2917   -0.7475    0.0000 C   0  0
    1.7138   -1.2033    0.0000 C   0  0
    2.5889    0.0182    0.0000 O   0  0
   -3.6168    1.4950    0.0000 C   0  0
   -4.9669    0.8708    0.0000 C   0  0
   -5.9732    1.9832    0.0000 N   0  0
   -5.2262    3.2840    0.0000 N   0  0
   -3.7582    2.9755    0.0000 C   0  0
   -0.9971   -3.0138    0.0000 N   0  0
   -2.2935   -3.7700    0.0000 C   0  0
   -4.6304   -4.2656    0.0000 N   0  0
   -3.6203   -3.1531    0.0000 N   0  0
   -3.8857   -5.5600    0.0000 C   0  0
   -2.4241   -5.2456    0.0000 C   0  0
   -1.4032   -6.3500    0.0000 C   0  0
   -1.8757   -7.7944    0.0000 C   0  0
   -3.3373   -8.1089    0.0000 C   0  0
   -4.3620   -6.9866    0.0000 C   0  0
  2  1  1  0
  3  2  1  0
  8  4  1  0
  4  5  2  0
  5  6  1  0
  6  7  2  0
  7  9  1  0
  8  9  2  0
  9 10  1  0
 10 11  1  0
 11  2  1  0
  2  8  1  0
  5 12  1  0
 12 13  2  0
 13 14  1  0
 14 15  1  0
 15 16  2  0
 16 12  1  0
  7 17  1  0
 17 18  1  0
 18 22  1  0
 21 19  1  0
 19 20  1  0
 20 18  2  0
 21 22  2  0
 22 23  1  0
 23 24  2  0
 24 25  1  0
 25 26  2  0
 26 21  1  0
M  END
> <chembl_id>
CHEMBL3758502

$$$$

  SciTegic10011413212D

 45 49  0  0  0  0            999 V2000
    9.9219  -15.5927    0.0000 C   0  0
    9.9219  -16.4099    0.0000 C   0  0
   10.6271  -16.8143    0.0000 N   0  0
   11.3324  -16.4099    0.0000 C   0  0
   11.3324  -15.5927    0.0000 C   0  0
   10.6271  -15.1799    0.0000 N   0  0
   10.6271  -17.6315    0.0000 C   0  0
   10.6276  -14.3636    0.0000 C   0  0
   11.3369  -13.9556    0.0000 C   0  0
   11.3373  -13.1392    0.0000 C   0  0
   10.6290  -12.7298    0.0000 C   0  0
    9.9190  -13.1427    0.0000 C   0  0
    9.9221  -13.9578    0.0000 C   0  0
    9.2098  -12.7366    0.0000 O   0  0
    8.5035  -13.1477    0.0000 C   0  0
   10.6279  -11.9126    0.0000 N   0  0
   11.3351  -11.5030    0.0000 C   0  0
   12.0417  -11.9149    0.0000 N   0  0
   12.0345  -10.2805    0.0000 C   0  0
   11.3307  -10.6917    0.0000 N   0  0
   12.7527  -11.5045    0.0000 C   0  0
   12.7477  -10.6880    0.0000 C   0  0
   13.3856  -10.1692    0.0000 C   0  0
   13.3999  -12.0117    0.0000 N   0  0
   14.1992  -11.8211    0.0000 C   0  0
   14.1839  -10.3405    0.0000 N   0  0
   14.5464  -11.0768    0.0000 C   0  0
   13.1949   -9.3746    0.0000 O   0  0
   14.7157  -12.4544    0.0000 O   0  0
   13.2275  -12.8061    0.0000 C   0  0
   12.4473  -13.0531    0.0000 C   0  0
   12.2726  -13.8506    0.0000 C   0  0
   12.8770  -14.4019    0.0000 C   0  0
   13.6589  -14.1501    0.0000 C   0  0
   13.8300  -13.3532    0.0000 C   0  0
   14.2649  -14.6984    0.0000 N   0  0
   14.0931  -15.4973    0.0000 C   0  0
   14.6991  -16.0455    0.0000 C   0  0
   13.3153  -15.7480    0.0000 O   0  0
   14.5274  -16.8445    0.0000 C   0  0
   14.6864   -9.6961    0.0000 C   0  0
   15.3636  -11.0681    0.0000 C   0  0
   15.7796  -11.7715    0.0000 C   0  0
   15.7647  -10.3562    0.0000 C   0  0
   16.5968  -11.7629    0.0000 C   0  0
  1  2  1  0
  1  6  1  0
  2  3  1  0
  3  4  1  0
  4  5  1  0
  5  6  1  0
  3  7  1  0
  8  9  2  0
  9 10  1  0
 10 11  2  0
 11 12  1  0
 12 13  2  0
 13  8  1  0
  6  8  1  0
 12 14  1  0
 14 15  1  0
 11 16  1  0
 16 17  1  0
 17 18  2  0
 18 21  1  0
 22 19  1  0
 19 20  2  0
 20 17  1  0
 21 22  2  0
 22 23  1  0
 21 24  1  0
 23 26  1  0
 24 25  1  0
 25 27  1  0
 26 27  1  0
 23 28  2  0
 25 29  2  0
 30 31  2  0
 31 32  1  0
 32 33  2  0
 33 34  1  0
 34 35  2  0
 35 30  1  0
 24 30  1  0
 34 36  1  0
 36 37  1  0
 37 38  1  0
 37 39  2  0
 38 40  2  0
 26 41  1  0
 27 42  1  0
 42 43  1  0
 42 44  1  0
 43 45  1  0
M  END
> <chembl_id>
CHEMBL3219130

$$$$

  SciTegic10011413212D

 26 28  0  0  0  0            999 V2000
    4.5179  -18.3042    0.0000 N   0  0
    4.5168  -19.1238    0.0000 C   0  0
    5.2248  -19.5327    0.0000 N   0  0
    5.9345  -19.1233    0.0000 C   0  0
    5.9316  -18.3006    0.0000 C   0  0
    5.2230  -17.8954    0.0000 C   0  0
    6.6428  -19.5308    0.0000 N   0  0
    7.3499  -19.1211    0.0000 C   0  0
    8.0549  -19.5290    0.0000 C   0  0
    8.7615  -19.1200    0.0000 C   0  0
    8.7606  -18.3019    0.0000 C   0  0
    8.0473  -17.8946    0.0000 C   0  0
    7.3436  -18.3059    0.0000 C   0  0
    5.2206  -17.0782    0.0000 N   0  0
    8.0431  -17.0774    0.0000 N   0  0
    8.7488  -16.6652    0.0000 C   0  0
    8.7446  -15.8480    0.0000 O   0  0
    9.4585  -17.0702    0.0000 C   0  0
   10.1642  -16.6580    0.0000 C   0  0
    4.5116  -16.6717    0.0000 C   0  0
    4.5125  -15.8552    0.0000 C   0  0
    3.8045  -15.4488    0.0000 C   0  0
    3.0970  -15.8596    0.0000 C   0  0
    3.1021  -16.6810    0.0000 C   0  0
    3.8107  -17.0837    0.0000 C   0  0
    2.3979  -17.0908    0.0000 Br  0  0
  1  2  2  0
  2  3  1  0
  3  4  2  0
  4  5  1  0
  5  6  2  0
  6  1  1  0
  4  7  1  0
  7  8  1  0
  8  9  2  0
  9 10  1  0
 10 11  2  0
 11 12  1  0
 12 13  2  0
 13  8  1  0
  6 14  1  0
 12 15  1  0
 15 16  1  0
 16 17  2  0
 16 18  1  0
 18 19  2  0
 14 20  1  0
 20 21  2  0
 21 22  1  0
 22 23  2  0
 23 24  1  0
 24 25  2  0
 25 20  1  0
 24 26  1  0
M  END
> <chembl_id>
CHEMBL3218346

$$$$

  SciTegic01161211252D

 23 25  0  0  0  0            999 V2000
    6.7402   -5.9416    0.0000 C   0  0
    6.7391   -6.7690    0.0000 C   0  0
    7.4539   -7.1819    0.0000 C   0  0
    7.4521   -5.5289    0.0000 C   0  0
    8.1675   -5.9380    0.0000 C   0  0
    8.1682   -6.7648    0.0000 C   0  0
    8.8835   -7.1758    0.0000 N   0  0
    9.5986   -6.7610    0.0000 C   0  0
    9.5938   -5.9311    0.0000 C   0  0
    8.8779   -5.5238    0.0000 C   0  0
    8.8735   -4.6989    0.0000 N   0  0
    9.5858   -4.2826    0.0000 C   0  0
   10.3015   -4.6968    0.0000 C   0  0
   11.0132   -4.2812    0.0000 C   0  0
   11.0093   -3.4553    0.0000 C   0  0
   10.2876   -3.0468    0.0000 C   0  0
    9.5788   -3.4647    0.0000 C   0  0
   11.7297   -4.6902    0.0000 Br  0  0
    6.0257   -5.5293    0.0000 N   0  0
    5.3113   -5.9420    0.0000 C   0  0
    4.5967   -5.5296    0.0000 C   0  0
    5.3115   -6.7670    0.0000 O   0  0
    3.8824   -5.9423    0.0000 C   0  0
 10 11  1  0
  2  3  1  0
 11 12  1  0
  5  6  1  0
 12 13  2  0
  3  6  2  0
 13 14  1  0
  6  7  1  0
 14 15  2  0
  1  2  2  0
 15 16  1  0
  7  8  2  0
 16 17  2  0
 17 12  1  0
  5  4  2  0
 14 18  1  0
  8  9  1  0
  1 19  1  0
  4  1  1  0
 19 20  1  0
  9 10  2  0
 20 21  1  0
 10  5  1  0
 20 22  2  0
 21 23  1  0
M  END
> <chembl_id>
CHEMBL1092382

$$$$

  SciTegic04301217312D

 25 27  0  0  0  0            999 V2000
   11.0259  -17.7380    0.0000 C   0  0
   11.0248  -18.5662    0.0000 N   0  0
   11.7403  -18.9794    0.0000 C   0  0
   12.4574  -18.5657    0.0000 N   0  0
   12.4546  -17.7344    0.0000 C   0  0
   11.7385  -17.3248    0.0000 N   0  0
   13.1682  -17.3188    0.0000 N   0  0
   13.8849  -17.7290    0.0000 C   0  0
   13.8847  -18.5524    0.0000 C   0  0
   14.6005  -18.9626    0.0000 C   0  0
   15.3151  -18.5469    0.0000 C   0  0
   15.3094  -17.7169    0.0000 C   0  0
   14.5929  -17.3105    0.0000 C   0  0
   11.7401  -19.8052    0.0000 N   0  0
   11.0248  -20.2180    0.0000 N   0  0
   11.0246  -21.0438    0.0000 C   0  0
   10.3093  -21.4565    0.0000 C   0  0
    9.5964  -21.0422    0.0000 C   0  0
    8.8817  -21.4542    0.0000 C   0  0
    8.8810  -22.2809    0.0000 C   0  0
    9.6011  -22.6938    0.0000 C   0  0
   10.3129  -22.2794    0.0000 C   0  0
    8.1663  -22.6946    0.0000 O   0  0
   10.3107  -17.3253    0.0000 N   0  0
    9.5956  -17.7383    0.0000 C   0  0
  6  1  1  0
 12 13  2  0
 13  8  1  0
  1  2  2  0
  3 14  1  0
  5  7  1  0
 14 15  1  0
  3  4  2  0
 15 16  2  0
  7  8  1  0
 16 17  1  0
 17 18  2  0
  8  9  2  0
 18 19  1  0
  4  5  1  0
 19 20  2  0
  9 10  1  0
 20 21  1  0
  2  3  1  0
 21 22  2  0
 22 17  1  0
 10 11  2  0
 20 23  1  0
  5  6  2  0
  1 24  1  0
 11 12  1  0
 24 25  1  0
M  END
> <chembl_id>
CHEMBL1946847

$$$$

  SciTegic10311316262D

 59 65  0  0  0  0            999 V2000
   16.9257  -15.2254    0.0000 O   0  0
   16.6516  -15.9958    0.0000 S   0  0
   17.4554  -15.8476    0.0000 O   0  0
   18.2560  -16.5714    0.0000 O   0  0
   17.5935  -17.0498    0.0000 C   0  0
   16.8158  -16.7965    0.0000 C   0  0
   16.3334  -17.4558    0.0000 N   0  3
   16.8117  -18.1185    0.0000 O   0  0
   17.5896  -17.8682    0.0000 N   0  0
   15.9386  -15.6001    0.0000 C   0  0
   15.9291  -14.7838    0.0000 C   0  0
   15.2153  -14.3876    0.0000 C   0  0
   14.5137  -14.8084    0.0000 C   0  0
   14.5306  -15.6296    0.0000 C   0  0
   15.2449  -16.0222    0.0000 C   0  0
   23.8952  -20.6815    0.0000 C   0  0
   23.8941  -21.5010    0.0000 C   0  0
   24.6021  -21.9100    0.0000 C   0  0
   25.3118  -21.5006    0.0000 C   0  0
   25.3090  -20.6779    0.0000 C   0  0
   24.6003  -20.2726    0.0000 C   0  0
   23.1882  -20.2687    0.0000 N   0  0
   23.1899  -19.4506    0.0000 C   0  0
   22.4862  -19.0422    0.0000 C   0  0
   21.7762  -19.4475    0.0000 N   0  0
   21.7744  -20.2656    0.0000 C   0  0
   22.4827  -20.6785    0.0000 C   0  0
   21.0699  -19.0364    0.0000 C   0  0
   24.6019  -22.7272    0.0000 O   0  0
   23.8941  -23.1356    0.0000 C   0  0
   26.0201  -21.9081    0.0000 N   0  0
   26.7272  -21.4983    0.0000 C   0  0
   27.4322  -21.9063    0.0000 N   0  0
   28.1388  -21.4972    0.0000 C   0  0
   28.1380  -20.6792    0.0000 C   0  0
   27.4247  -20.2719    0.0000 C   0  0
   26.7210  -20.6832    0.0000 N   0  0
   28.8445  -20.2685    0.0000 Cl  0  0
   27.4205  -19.4547    0.0000 O   0  0
   28.1261  -19.0425    0.0000 C   0  0
   28.8364  -19.4498    0.0000 C   0  0
   29.5415  -19.0383    0.0000 C   0  0
   29.5378  -18.2203    0.0000 C   0  0
   28.8230  -17.8155    0.0000 C   0  0
   28.1208  -18.2293    0.0000 C   0  0
   30.2511  -19.4436    0.0000 N   0  0
   30.9569  -19.0318    0.0000 C   0  0
   31.6665  -19.4371    0.0000 C   0  0
   30.9532  -18.2146    0.0000 O   0  0
   32.3723  -19.0253    0.0000 C   0  0
   21.0728  -18.2192    0.0000 C   0  0
   20.3666  -17.8081    0.0000 N   0  0
   21.7820  -17.8131    0.0000 O   0  0
   20.3745  -16.9936    0.0000 C   0  0
   19.6723  -16.5826    0.0000 C   0  0
   18.9607  -16.9852    0.0000 C   0  0
   18.9559  -17.8033    0.0000 C   0  0
   19.6626  -18.2188    0.0000 C   0  0
   15.5143  -17.4499    0.0000 O   0  5
  2  1  2  0
  3  2  2  0
  4  5  1  0
  5  6  1  0
  6  7  2  0
  7  8  1  0
  8  9  1  0
  9  5  2  0
  6  2  1  0
  2 10  1  0
 10 11  2  0
 11 12  1  0
 12 13  2  0
 13 14  1  0
 14 15  2  0
 15 10  1  0
 16 17  2  0
 17 18  1  0
 18 19  2  0
 19 20  1  0
 20 21  2  0
 21 16  1  0
 22 23  1  0
 22 27  1  0
 23 24  1  0
 24 25  1  0
 25 26  1  0
 26 27  1  0
 16 22  1  0
 25 28  1  0
 18 29  1  0
 29 30  1  0
 19 31  1  0
 31 32  1  0
 32 33  2  0
 33 34  1  0
 34 35  2  0
 35 36  1  0
 36 37  2  0
 37 32  1  0
 35 38  1  0
 36 39  1  0
 39 40  1  0
 40 41  2  0
 41 42  1  0
 42 43  2  0
 43 44  1  0
 44 45  2  0
 45 40  1  0
 42 46  1  0
 46 47  1  0
 47 48  1  0
 47 49  2  0
 48 50  2  0
 28 51  1  0
 51 52  1  0
 51 53  2  0
 52 54  1  0
 52 58  1  0
 54 55  1  0
 55 56  1  0
 56 57  1  0
 57 58  1  0
 56  4  1  0
  7 59  1  0
M  CHG  2   7   1  59  -1
M  END
> <chembl_id>
CHEMBL2381504

$$$$

  SciTegic08011209522D

 39 43  0  0  0  0            999 V2000
   -2.3139  -14.5750    0.0000 N   0  0
   -2.3151  -15.4023    0.0000 C   0  0
   -1.6003  -15.8152    0.0000 N   0  0
   -1.6021  -14.1622    0.0000 C   0  0
   -0.8867  -14.5713    0.0000 C   0  0
   -0.8833  -15.4044    0.0000 C   0  0
   -0.1641  -15.8157    0.0000 N   0  0
    0.5563  -15.3985    0.0000 C   0  0
    0.5529  -14.5654    0.0000 N   0  0
   -0.1709  -14.1495    0.0000 C   0  0
   -0.1601  -16.6373    0.0000 C   0  0
   -0.8751  -17.0511    0.0000 C   0  0
   -0.8732  -17.8753    0.0000 C   0  0
   -0.1571  -18.2867    0.0000 C   0  0
    0.5586  -17.8678    0.0000 C   0  0
    0.5532  -17.0450    0.0000 C   0  0
   -3.0299  -15.8143    0.0000 N   0  0
   -3.0305  -16.6393    0.0000 C   0  0
   -3.7454  -17.0496    0.0000 C   0  0
   -3.7464  -17.8739    0.0000 C   0  0
   -3.0318  -18.2878    0.0000 C   0  0
   -2.3146  -17.8714    0.0000 C   0  0
   -2.3171  -17.0485    0.0000 C   0  0
    1.2719  -15.8091    0.0000 O   0  0
    1.2757  -18.2759    0.0000 N   0  0
    1.2808  -19.1008    0.0000 C   0  0
    1.9979  -19.5089    0.0000 C   0  0
    0.5690  -19.5178    0.0000 O   0  0
    2.0030  -20.3339    0.0000 C   0  0
   -3.0313  -19.1128    0.0000 N   0  0
    1.2661  -14.1507    0.0000 C   0  0
   -3.7482  -19.5224    0.0000 C   0  0
   -3.7498  -20.3438    0.0000 C   0  0
   -3.0369  -20.7597    0.0000 N   0  0
   -2.3208  -20.3481    0.0000 C   0  0
   -2.3176  -19.5205    0.0000 C   0  0
   -3.0396  -21.5847    0.0000 C   0  0
   -4.4614  -18.2855    0.0000 O   0  0
   -5.1754  -17.8720    0.0000 C   0  0
  6  7  1  0
 18 19  2  0
  7  8  1  0
 19 20  1  0
  8  9  1  0
 20 21  2  0
  9 10  1  0
 21 22  1  0
  5  6  1  0
 22 23  2  0
 23 18  1  0
  8 24  2  0
 11 12  2  0
 15 25  1  0
  2  3  1  0
 25 26  1  0
 12 13  1  0
 26 27  1  0
  3  6  2  0
 26 28  2  0
 13 14  2  0
 27 29  2  0
  1  2  2  0
 21 30  1  0
 14 15  1  0
  9 31  1  0
 30 32  1  0
  5  4  2  0
 15 16  2  0
 16 11  1  0
  7 11  1  0
  4  1  1  0
 30 36  1  0
 32 33  1  0
 33 34  1  0
 34 35  1  0
 35 36  1  0
  2 17  1  0
 34 37  1  0
  5 10  1  0
 20 38  1  0
 17 18  1  0
 38 39  1  0
M  END
> <chembl_id>
CHEMBL2029429

$$$$

  SciTegic09081514182D

 30 31  0  0  0  0            999 V2000
    1.2990   -0.7500    0.0000 C   0  0
    1.2990    0.7500    0.0000 C   0  0
    0.0000    1.5000    0.0000 C   0  0
   -1.2990    0.7500    0.0000 C   0  0
   -1.2990   -0.7500    0.0000 C   0  0
    0.0000   -1.5000    0.0000 C   0  0
   -2.5972   -1.5031    0.0000 C   0  0
   -2.5951   -3.0039    0.0000 C   0  0
   -3.8933   -3.7570    0.0000 C   0  0
   -3.8912   -5.2578    0.0000 C   0  0
   -4.9336   -3.1588    0.0000 O   0  0
   -5.1894   -6.0109    0.0000 C   0  0
   -5.1872   -7.5117    0.0000 C   0  0
   -6.2296   -5.4127    0.0000 O   0  0
   -6.4854   -8.2648    0.0000 C   0  0
   -6.4833   -9.7657    0.0000 C   0  0
   -7.7797  -10.5203    0.0000 C   0  0
   -7.7745  -12.0202    0.0000 C   0  0
   -6.4729  -12.7657    0.0000 C   0  0
   -5.1764  -12.0112    0.0000 C   0  0
   -5.1816  -10.5113    0.0000 C   0  0
    2.3383   -1.3500    0.0000 O   0  0
    2.3383    1.3500    0.0000 O   0  0
   -6.4687  -13.9657    0.0000 O   0  0
   -4.1351  -12.6076    0.0000 O   0  0
   -2.5916   -6.0087    0.0000 C   0  0
   -2.5912   -7.5095    0.0000 C   0  0
   -1.2916   -8.2603    0.0000 C   0  0
   -1.2913   -9.4603    0.0000 O   0  0
   -0.2524   -7.6603    0.0000 O   0  0
  1  2  2  0
  2  3  1  0
  3  4  2  0
  4  5  1  0
  5  6  2  0
  6  1  1  0
  5  7  1  0
  7  8  2  0
  8  9  1  0
  9 10  2  0
  9 11  1  0
 10 12  1  0
 12 13  1  0
 12 14  2  0
 13 15  2  0
 15 16  1  0
 16 17  2  0
 17 18  1  0
 18 19  2  0
 19 20  1  0
 20 21  2  0
 21 16  1  0
  1 22  1  0
  2 23  1  0
 19 24  1  0
 20 25  1  0
 10 26  1  0
 26 27  1  0
 27 28  1  0
 28 29  2  0
 28 30  1  0
M  END
> <chembl_id>
CHEMBL3402855

$$$$

  SciTegic04091414152D

 43 48  0  0  0  0            999 V2000
   20.8864   -9.7418    0.0000 N   0  0
   20.8852  -10.5692    0.0000 C   0  0
   21.6001  -10.9820    0.0000 N   0  0
   21.5983   -9.3290    0.0000 C   0  0
   22.3137   -9.7381    0.0000 C   0  0
   22.3145  -10.5650    0.0000 C   0  0
   23.0297  -10.9760    0.0000 N   0  0
   23.7448  -10.5612    0.0000 C   0  0
   23.7400   -9.7313    0.0000 N   0  0
   23.0241   -9.3240    0.0000 C   0  0
   20.1704  -10.9811    0.0000 N   0  0
   24.4609  -10.9709    0.0000 O   0  0
   24.4519   -9.3144    0.0000 C   0  0
   25.1689   -9.7225    0.0000 C   0  0
   25.1693  -10.5471    0.0000 C   0  0
   25.8854  -10.9552    0.0000 C   0  0
   26.5984  -10.5382    0.0000 C   0  0
   26.5907   -9.7091    0.0000 C   0  0
   25.8740   -9.3047    0.0000 C   0  0
   20.1698  -11.8061    0.0000 C   0  0
   19.4549  -12.2165    0.0000 C   0  0
   19.4538  -13.0407    0.0000 C   0  0
   20.1685  -13.4547    0.0000 C   0  0
   20.8857  -13.0383    0.0000 C   0  0
   20.8832  -12.2154    0.0000 C   0  0
   20.1690  -14.2797    0.0000 N   0  0
   19.4543  -14.6932    0.0000 C   0  0
   19.4528  -15.5146    0.0000 C   0  0
   20.1657  -15.9306    0.0000 N   0  0
   20.8818  -15.5189    0.0000 C   0  0
   20.8850  -14.6913    0.0000 C   0  0
   20.1630  -16.7557    0.0000 C   0  0
   18.7412  -11.8027    0.0000 O   0  0
   18.0259  -12.2138    0.0000 C   0  0
   23.0315  -11.8010    0.0000 C   0  0  1  0  0  0
   22.3673  -12.2867    0.0000 C   0  0
   22.6239  -13.0708    0.0000 C   0  0
   23.4489  -13.0691    0.0000 N   0  0
   23.7021  -12.2840    0.0000 C   0  0
   23.8562  -13.7867    0.0000 C   0  0
   23.4387  -14.4984    0.0000 C   0  0
   24.6812  -13.7925    0.0000 O   0  0
   23.8463  -15.2157    0.0000 C   0  0
  1  2  2  0
  2  3  1  0
  3  6  2  0
  5  4  2  0
  4  1  1  0
  5  6  1  0
  6  7  1  0
  7  8  1  0
  8  9  1  0
  9 10  1  0
 10  5  1  0
  2 11  1  0
  8 12  2  0
  9 13  1  0
 13 14  1  0
 14 15  2  0
 15 16  1  0
 16 17  2  0
 17 18  1  0
 18 19  2  0
 19 14  1  0
 11 20  1  0
 20 21  2  0
 21 22  1  0
 22 23  2  0
 23 24  1  0
 24 25  2  0
 25 20  1  0
 23 26  1  0
 26 27  1  0
 26 31  1  0
 27 28  1  0
 28 29  1  0
 29 30  1  0
 30 31  1  0
 29 32  1  0
 21 33  1  0
 33 34  1  0
 35  7  1  6
 35 36  1  0
 36 37  1  0
 37 38  1  0
 38 39  1  0
 39 35  1  0
 38 40  1  0
 40 41  1  0
 40 42  2  0
 41 43  2  0
M  END
> <chembl_id>
CHEMBL3087205

$$$$

  SciTegic09261414462D

 32 34  0  0  0  0            999 V2000
   19.4142   -5.1081    0.0000 N   0  0
   20.1239   -4.6986    0.0000 C   0  0
   20.1210   -3.8760    0.0000 N   0  0
   19.4124   -3.4707    0.0000 C   0  0
   18.7062   -4.6991    0.0000 C   0  0
   18.7074   -3.8826    0.0000 C   0  0
   17.9312   -3.6291    0.0000 C   0  0
   17.4502   -4.2890    0.0000 C   0  0
   17.9292   -4.9502    0.0000 S   0  0
   19.4087   -2.6535    0.0000 N   0  0
   20.1145   -2.2417    0.0000 C   0  0
   20.8219   -2.6518    0.0000 C   0  0
   21.5272   -2.2406    0.0000 C   0  0
   21.5239   -1.4226    0.0000 C   0  0
   20.8093   -1.0174    0.0000 C   0  0
   20.1069   -1.4309    0.0000 C   0  0
   16.6330   -4.2878    0.0000 N   0  0
   16.2254   -3.5795    0.0000 C   0  0
   15.4083   -3.5783    0.0000 C   0  0
   16.6351   -2.8724    0.0000 O   0  0
   22.2292   -1.0098    0.0000 F   0  0
   22.2366   -2.6463    0.0000 Cl  0  0
   15.0007   -2.8700    0.0000 C   0  0
   14.1835   -2.8688    0.0000 C   0  0
   13.7759   -2.1605    0.0000 N   0  0
   14.1855   -1.4534    0.0000 C   0  0
   12.9587   -2.1593    0.0000 C   0  0
   12.5512   -1.4510    0.0000 C   0  0
   12.9608   -0.7439    0.0000 O   0  0
   11.7340   -1.4498    0.0000 O   0  0
   11.3264   -0.7415    0.0000 C   0  0
   12.5532   -0.0356    0.0000 C   0  0
  5  1  1  0
  1  2  2  0
  2  3  1  0
  3  4  2  0
  4  6  1  0
  5  6  2  0
  6  7  1  0
  7  8  2  0
  8  9  1  0
  9  5  1  0
  4 10  1  0
 10 11  1  0
 11 12  2  0
 12 13  1  0
 13 14  2  0
 14 15  1  0
 15 16  2  0
 16 11  1  0
  8 17  1  0
 17 18  1  0
 18 19  1  0
 18 20  2  0
 14 21  1  0
 13 22  1  0
 19 23  2  0
 23 24  1  0
 24 25  1  0
 25 26  1  0
 25 27  1  0
 27 28  1  0
 28 29  1  0
 28 30  1  0
 30 31  1  0
 29 32  1  0
M  END
> <chembl_id>
CHEMBL3233779

$$$$

  SciTegic05061409512D

 24 26  0  0  0  0            999 V2000
   27.6810   -4.9182    0.0000 N   0  0
   28.3907   -4.5088    0.0000 C   0  0
   28.3879   -3.6861    0.0000 N   0  0
   27.6793   -3.2808    0.0000 C   0  0
   26.9730   -4.5092    0.0000 C   0  0
   26.9753   -3.6874    0.0000 C   0  0
   26.2658   -3.2762    0.0000 C   0  0
   25.5535   -3.6858    0.0000 C   0  0
   25.5552   -4.5109    0.0000 C   0  0
   26.2653   -4.9183    0.0000 C   0  0
   27.6776   -2.4637    0.0000 N   0  0
   24.8457   -3.2774    0.0000 N   0  0
   24.1381   -3.6861    0.0000 C   0  0
   23.4303   -3.2776    0.0000 C   0  0
   24.1382   -4.5033    0.0000 O   0  0
   22.7227   -3.6863    0.0000 C   0  0
   28.3844   -2.0536    0.0000 C   0  0
   29.0933   -2.4658    0.0000 C   0  0
   29.7997   -2.0564    0.0000 C   0  0
   29.7984   -1.2383    0.0000 C   0  0
   29.0849   -0.8314    0.0000 C   0  0
   28.3815   -1.2431    0.0000 C   0  0
   30.5047   -0.8273    0.0000 Br  0  0
   29.0803   -0.0188    0.0000 C   0  0
  5  1  1  0
  1  2  2  0
  2  3  1  0
  3  4  2  0
  4  6  1  0
  5  6  1  0
  6  7  2  0
  7  8  1  0
  8  9  2  0
  9 10  1  0
 10  5  2  0
  4 11  1  0
  8 12  1  0
 12 13  1  0
 13 14  1  0
 13 15  2  0
 14 16  2  0
 11 17  1  0
 17 18  2  0
 18 19  1  0
 19 20  2  0
 20 21  1  0
 21 22  2  0
 22 17  1  0
 20 23  1  0
 21 24  1  0
M  END
> <chembl_id>
CHEMBL3133903

$$$$

  CDK    9/16/09,9:56

 16 18  0  0  0  0  0  0  0  0999 V2000
    0.1747    0.4212    0.0000 C   0  0  0  0  0  0  0  0  0  0  0  0
    0.8874    0.8300    0.0000 C   0  0  0  0  0  0  0  0  0  0  0  0
    0.8874    1.6558    0.0000 N   0  0  0  0  0  0  0  0  0  0  0  0
    0.1747    2.0728    0.0000 C   0  0  0  0  0  0  0  0  0  0  0  0
   -0.5380    0.8300    0.0000 C   0  0  0  0  0  0  0  0  0  0  0  0
   -0.5380    1.6603    0.0000 C   0  0  0  0  0  0  0  0  0  0  0  0
   -1.3277    1.9171    0.0000 C   0  0  0  0  0  0  0  0  0  0  0  0
   -1.8159    1.2452    0.0000 C   0  0  0  0  0  0  0  0  0  0  0  0
   -1.3278    0.5735    0.0000 N   0  0  0  0  0  0  0  0  0  0  0  0
   -2.6374    1.2456    0.0000 C   0  0  0  0  0  0  0  0  0  0  0  0
   -3.0497    1.9624    0.0000 C   0  0  0  0  0  0  0  0  0  0  0  0
   -3.8747    1.9628    0.0000 C   0  0  0  0  0  0  0  0  0  0  0  0
   -4.2884    1.2470    0.0000 N   0  0  0  0  0  0  0  0  0  0  0  0
   -3.8711    0.5295    0.0000 C   0  0  0  0  0  0  0  0  0  0  0  0
   -3.0474    0.5327    0.0000 C   0  0  0  0  0  0  0  0  0  0  0  0
    0.1767    2.8986    0.0000 O   0  0  0  0  0  0  0  0  0  0  0  0
  6  7  1  0  0  0  0 
  7  8  2  0  0  0  0 
  8  9  1  0  0  0  0 
  9  5  1  0  0  0  0 
  3  4  1  0  0  0  0 
  5  6  2  0  0  0  0 
 10 11  2  0  0  0  0 
 11 12  1  0  0  0  0 
  6  4  1  0  0  0  0 
 12 13  2  0  0  0  0 
  5  1  1  0  0  0  0 
 13 14  1  0  0  0  0 
  1  2  1  0  0  0  0 
 14 15  2  0  0  0  0 
 15 10  1  0  0  0  0 
  8 10  1  0  0  0  0 
  2  3  1  0  0  0  0 
  4 16  2  0  0  0  0 
M  END
> <chembl_id>
CHEMBL225519

$$$$

  SciTegic09261414462D

 29 32  0  0  0  0            999 V2000
   19.6082  -10.7500    0.0000 N   0  0
   20.3179  -10.3405    0.0000 C   0  0
   20.3150   -9.5179    0.0000 N   0  0
   19.6064   -9.1126    0.0000 C   0  0
   18.9001  -10.3410    0.0000 C   0  0
   18.9014   -9.5245    0.0000 C   0  0
   18.1252   -9.2710    0.0000 C   0  0
   17.6442   -9.9309    0.0000 C   0  0
   18.1232  -10.5921    0.0000 S   0  0
   19.6026   -8.2954    0.0000 N   0  0
   20.3085   -7.8836    0.0000 C   0  0
   21.0159   -8.2937    0.0000 C   0  0
   21.7212   -7.8825    0.0000 C   0  0
   21.7179   -7.0645    0.0000 C   0  0
   21.0033   -6.6593    0.0000 C   0  0
   20.3009   -7.0728    0.0000 C   0  0
   16.8270   -9.9297    0.0000 N   0  0
   16.4194   -9.2214    0.0000 C   0  0
   15.6022   -9.2202    0.0000 C   0  0
   16.8290   -8.5143    0.0000 O   0  0
   22.4231   -6.6517    0.0000 F   0  0
   22.4306   -8.2882    0.0000 Cl  0  0
   15.1947   -8.5119    0.0000 C   0  0
   14.3775   -8.5107    0.0000 C   0  0
   13.9699   -7.8024    0.0000 N   0  0
   14.1856   -7.0165    0.0000 C   0  0
   13.3966   -6.8038    0.0000 C   0  0
   13.1839   -7.5929    0.0000 C   0  0
   12.9890   -6.0955    0.0000 O   0  0
  5  1  1  0
  1  2  2  0
  2  3  1  0
  3  4  2  0
  4  6  1  0
  5  6  2  0
  6  7  1  0
  7  8  2  0
  8  9  1  0
  9  5  1  0
  4 10  1  0
 10 11  1  0
 11 12  2  0
 12 13  1  0
 13 14  2  0
 14 15  1  0
 15 16  2  0
 16 11  1  0
  8 17  1  0
 17 18  1  0
 18 19  1  0
 18 20  2  0
 14 21  1  0
 13 22  1  0
 19 23  2  0
 23 24  1  0
 24 25  1  0
 25 26  1  0
 26 27  1  0
 27 28  1  0
 28 25  1  0
 27 29  1  0
M  END
> <chembl_id>
CHEMBL3233782

$$$$

  SciTegic12091611192D

 28 30  0  0  0  0            999 V2000
  -12.7129    0.6370    0.0000 C   0  0
  -11.4219    1.4024    0.0000 C   0  0
  -10.1131    0.6680    0.0000 C   0  0
  -13.7594    1.2242    0.0000 O   0  0
  -12.6986   -0.5629    0.0000 N   0  0
   -8.8221    1.4334    0.0000 N   0  0
   -7.5133    0.6990    0.0000 C   0  0
   -6.2219    1.4621    0.0000 N   0  0
   -4.9153    0.7255    0.0000 C   0  0
   -4.9001   -0.7745    0.0000 C   0  0
   -6.1914   -1.5377    0.0000 C   0  0
   -7.4980   -0.8010    0.0000 N   0  0
   -3.6217    1.4865    0.0000 N   0  0
   -1.0028   -1.5132    0.0000 C   0  0
    0.2917   -0.7475    0.0000 C   0  0
    0.2917    0.7475    0.0000 C   0  0
   -1.0028    1.5132    0.0000 C   0  0
   -2.3155    0.7475    0.0000 C   0  0
   -2.3155   -0.7475    0.0000 N   0  0
    2.5889    0.0182    0.0000 C   0  0
    1.7138   -1.2033    0.0000 N   0  0
    1.7138    1.2033    0.0000 N   0  0
    3.7889    0.0269    0.0000 C   0  0
    2.1812    2.6271    0.0000 C   0  0
    3.3556    2.8737    0.0000 C   0  0
    1.3808    3.5211    0.0000 C   0  0
  -10.3900    2.0149    0.0000 C   0  0
  -11.4362    2.6023    0.0000 C   0  0
  1  2  1  0
  2  3  1  0
  1  4  2  0
  1  5  1  0
  7  8  1  0
  8  9  2  0
  9 10  1  0
 10 11  2  0
 11 12  1  0
  7 12  2  0
 14 15  1  0
 15 16  2  0
 16 17  1  0
 17 18  2  0
 18 19  1  0
 14 19  2  0
 20 21  2  0
 20 22  1  0
 15 21  1  0
 16 22  1  0
 20 23  1  0
 24 25  1  0
 24 26  1  0
 22 24  1  0
 13 18  1  0
  9 13  1  0
  6  7  1  0
  3  6  1  0
  2 27  1  0
  2 28  1  0
M  END
> <chembl_id>
CHEMBL3735689

$$$$

  SciTegic04191617032D

 27 30  0  0  0  0            999 V2000
   -2.6111    0.7486    0.0000 C   0  0
   -2.6111   -0.7486    0.0000 C   0  0
   -1.2964   -1.4973    0.0000 C   0  0
   -1.2964    1.4973    0.0000 C   0  0
    0.0000    0.7486    0.0000 C   0  0
    0.0000   -0.7486    0.0000 C   0  0
    1.2964   -1.4973    0.0000 N   0  0
    2.5929   -0.7486    0.0000 C   0  0
    2.5929    0.7486    0.0000 N   0  0
    1.2964    1.4973    0.0000 C   0  0
    1.2995    2.9981    0.0000 N   0  0
    2.6003    3.7467    0.0000 C   0  0
    2.7434    5.2271    0.0000 C   0  0
    4.2117    5.5338    0.0000 C   0  0
    4.9571    4.2322    0.0000 N   0  0
    3.9496    3.1210    0.0000 N   0  0
    3.8926   -1.4990    0.0000 C   0  0
    5.1929   -0.7510    0.0000 C   0  0
    6.4908   -1.5029    0.0000 C   0  0
    6.4885   -3.0029    0.0000 C   0  0
    5.1883   -3.7510    0.0000 C   0  0
    3.8904   -2.9990    0.0000 C   0  0
    7.7932   -0.7572    0.0000 N   0  0
    9.0907   -1.5114    0.0000 C   0  0
   10.3932   -0.7656    0.0000 C   0  0
   11.4306   -1.3687    0.0000 C   0  0
    9.0868   -2.7114    0.0000 O   0  0
  1  2  2  0
  2  3  1  0
  3  6  2  0
  5  4  2  0
  4  1  1  0
  5  6  1  0
  6  7  1  0
  7  8  2  0
  8  9  1  0
  9 10  2  0
 10  5  1  0
 10 11  1  0
 11 12  1  0
 12 13  1  0
 13 14  2  0
 14 15  1  0
 15 16  1  0
 16 12  2  0
  8 17  1  0
 17 18  2  0
 18 19  1  0
 19 20  2  0
 20 21  1  0
 21 22  2  0
 22 17  1  0
 19 23  1  0
 23 24  1  0
 24 25  1  0
 25 26  1  0
 24 27  2  0
M  END
> <chembl_id>
CHEMBL3604915

$$$$

  SciTegic02271514372D

 32 37  0  0  0  0            999 V2000
    9.2125   -5.6325    0.0000 N   0  0
    8.3875   -5.6325    0.0000 C   0  0
    7.9750   -6.3470    0.0000 N   0  0
    8.3875   -7.0615    0.0000 C   0  0
    9.2125   -7.0615    0.0000 C   0  0
    9.6250   -7.7759    0.0000 C   0  0
   10.4500   -7.7759    0.0000 C   0  0
   10.8625   -7.0615    0.0000 C   0  0
   10.4500   -6.3470    0.0000 C   0  0
    9.6250   -6.3470    0.0000 C   0  0
    7.1680   -6.5185    0.0000 N   0  0
    7.0818   -7.3390    0.0000 C   0  0
    7.8355   -7.6746    0.0000 N   0  0
    6.3673   -7.7515    0.0000 N   0  0
   11.6875   -7.0615    0.0000 N   0  0
   12.1000   -6.3470    0.0000 C   0  0
   12.9250   -6.3470    0.0000 C   0  0
   13.3375   -7.0615    0.0000 N   0  0
   12.9250   -7.7759    0.0000 C   0  0
   12.1000   -7.7759    0.0000 C   0  0
   14.1625   -7.0615    0.0000 C   0  0
    9.2125   -8.4904    0.0000 F   0  0
    7.9750   -4.9181    0.0000 C   0  0
    4.6930   -5.0896    0.0000 O   0  0
    4.6068   -5.9101    0.0000 C   0  0
    5.3605   -6.2456    0.0000 O   0  0
    5.9125   -5.6325    0.0000 C   0  0
    5.5000   -4.9181    0.0000 C   0  0
    6.7375   -5.6325    0.0000 C   0  0
    7.1500   -4.9181    0.0000 C   0  0
    6.7375   -4.2036    0.0000 C   0  0
    5.9125   -4.2036    0.0000 C   0  0
  1  2  2  0
  2  3  1  0
  3  4  1  0
  4  5  1  0
  5  6  1  0
  6  7  2  0
  7  8  1  0
  8  9  2  0
  9 10  1  0
  1 10  1  0
  5 10  2  0
 11 12  2  0
 12 13  1  0
  3 11  1  0
  4 13  2  0
 12 14  1  0
 15 16  1  0
 16 17  1  0
 17 18  1  0
 18 19  1  0
 19 20  1  0
 15 20  1  0
 18 21  1  0
  8 15  1  0
  6 22  1  0
 24 25  1  0
 25 26  1  0
 26 27  1  0
 27 28  1  0
 24 28  1  0
 29 30  1  0
 30 31  2  0
 31 32  1  0
 28 32  2  0
 27 29  2  0
 23 30  1  0
  2 23  1  0
M  END
> <chembl_id>
CHEMBL3310151

$$$$

  SciTegic05221516342D

 29 32  0  0  0  0            999 V2000
   31.6786   -9.5677    0.0000 C   0  0
   32.4958  -10.9859    0.0000 C   0  0
   31.6786  -10.9859    0.0000 C   0  0
   31.2700  -10.2768    0.0000 N   0  0
   31.2700  -11.6950    0.0000 N   0  0
   29.2271  -10.9859    0.0000 C   0  0
   30.0442  -10.9859    0.0000 N   0  0
   30.4528  -11.6950    0.0000 C   0  0
   30.0442  -12.3999    0.0000 C   0  0
   29.2271  -12.3999    0.0000 C   0  0
   28.8185  -11.6950    0.0000 N   0  0
   28.8185  -10.2768    0.0000 N   0  0
   28.0013  -10.2768    0.0000 C   0  0
   27.5927   -9.5677    0.0000 C   0  0
   28.0013   -8.8627    0.0000 C   0  0
   28.8185   -8.8627    0.0000 C   0  0
   29.2271   -9.5677    0.0000 C   0  0
   27.5927   -8.1537    0.0000 O   0  0
   26.7755   -8.1537    0.0000 C   0  0
   32.4933   -9.5681    0.0000 C   0  0
   32.9044  -10.2768    0.0000 C   0  0
   33.7191  -10.2751    0.0000 N   0  0
   34.1290   -9.5665    0.0000 C   0  0
   33.7179   -8.8578    0.0000 C   0  0
   32.8970   -8.8578    0.0000 C   0  0
   34.9462   -9.5659    0.0000 O   0  0
   34.1282  -10.9826    0.0000 C   0  0
   33.7201  -11.6906    0.0000 C   0  0
   34.9454  -10.9821    0.0000 C   0  0
  1 20  1  0
 21  2  1  0
  2  3  2  0
  3  4  1  0
  1  4  2  0
  3  5  1  0
  6  7  1  0
  7  8  2  0
  8  9  1  0
  9 10  2  0
 10 11  1  0
  6 11  2  0
 12 13  1  0
 13 14  1  0
 14 15  1  0
 15 16  1  0
 16 17  1  0
 12 17  1  0
 18 19  1  0
 15 18  1  0
  6 12  1  0
  5  8  1  0
 20 21  2  0
 20 25  1  0
 21 22  1  0
 22 23  1  0
 23 24  1  0
 24 25  2  0
 23 26  2  0
 22 27  1  0
 27 28  1  0
 27 29  1  0
M  END
> <chembl_id>
CHEMBL3354195

$$$$

  SciTegic01181116592D

 41 47  0  0  0  0            999 V2000
   13.5066  -12.0619    0.0000 C   0  0  2  0  0  0
   12.9571  -12.6733    0.0000 C   0  0
   13.2098  -13.4549    0.0000 C   0  0
   14.0165  -13.6298    0.0000 C   0  0  1  0  0  0
   14.5700  -13.0167    0.0000 C   0  0
   14.3169  -12.2288    0.0000 C   0  0
   13.2488  -11.2782    0.0000 N   0  0
   17.5622   -7.8527    0.0000 C   0  0
   18.2787   -7.4394    0.0000 C   0  0
   18.2758   -6.6088    0.0000 C   0  0
   17.5604   -6.1997    0.0000 C   0  0
   16.8474   -7.4398    0.0000 C   0  0
   16.8487   -6.6109    0.0000 C   0  0
   16.0607   -6.3536    0.0000 N   0  0
   15.5724   -7.0235    0.0000 C   0  0
   16.0587   -7.6947    0.0000 O   0  0
   14.7474   -7.0223    0.0000 N   0  0
   14.3339   -7.7361    0.0000 C   0  0
   13.5106   -7.7316    0.0000 C   0  0
   13.0971   -8.4447    0.0000 C   0  0
   13.5086   -9.1607    0.0000 C   0  0
   14.3379   -9.1593    0.0000 C   0  0
   14.7476   -8.4457    0.0000 C   0  0
   13.2550   -9.9455    0.0000 C   0  0
   13.7350  -10.6096    0.0000 N   0  0
   12.4659  -11.0233    0.0000 C   0  0
   12.4677  -10.1991    0.0000 C   0  0
   11.7560   -9.7873    0.0000 C   0  0
   11.0420  -10.1985    0.0000 N   0  0
   11.0442  -11.0258    0.0000 C   0  0
   11.7565  -11.4339    0.0000 N   0  0
   14.2692  -14.4151    0.0000 N   0  0
   13.7166  -15.0251    0.0000 C   0  0
   13.9664  -15.8076    0.0000 C   0  0
   14.7724  -15.9856    0.0000 N   0  0
   15.3282  -15.3746    0.0000 C   0  0
   15.0781  -14.5857    0.0000 C   0  0
   15.0222  -16.7719    0.0000 C   0  0
   11.7570   -8.9623    0.0000 N   0  0
   13.1007   -7.0157    0.0000 F   0  0
   18.9887   -6.1936    0.0000 Cl  0  0
 19 20  1  0
  9 10  1  0
 20 21  2  0
  3  4  1  0
 21 22  1  0
 10 11  2  0
 22 23  2  0
 23 18  1  0
 11 13  1  0
 21 24  1  0
 24 27  1  0
 12 13  2  0
 26  7  1  0
  7 25  1  0
 25 24  2  0
  4  5  1  0
  5  6  1  0
 26 27  2  0
  1  2  1  0
 27 28  1  0
  1  7  1  1
 28 29  2  0
 29 30  1  0
 13 14  1  0
 30 31  2  0
 31 26  1  0
 14 15  2  0
  4 32  1  1
 32 33  1  0
 15 16  1  0
 16 12  1  0
 12  8  1  0
 15 17  1  0
  1  6  1  0
 32 37  1  0
 33 34  1  0
 34 35  1  0
 35 36  1  0
 36 37  1  0
 17 18  1  0
 35 38  1  0
  8  9  2  0
 28 39  1  0
 18 19  2  0
 19 40  1  0
  2  3  1  0
 10 41  1  0
M  END
> <chembl_id>
CHEMBL1256422

$$$$

  SciTegic12091614152D

 35 37  0  0  0  0            999 V2000
    1.2990   -0.7500    0.0000 C   0  0
    1.2990    0.7500    0.0000 C   0  0
    0.0000    1.5000    0.0000 C   0  0
   -1.2990    0.7500    0.0000 C   0  0
   -1.2990   -0.7500    0.0000 C   0  0
    0.0000   -1.5000    0.0000 C   0  0
    2.5973   -1.5031    0.0000 N   0  0
   -0.0031    3.0008    0.0000 N   0  0
    1.2883   -5.2495    0.0000 C   0  0
    1.2935   -3.7495    0.0000 N   0  0
    2.5951   -3.0039    0.0000 C   0  0
    3.8915   -3.7585    0.0000 C   0  0
    3.8864   -5.2585    0.0000 C   0  0
    2.5847   -6.0040    0.0000 N   0  0
   -0.0125   -5.9981    0.0000 N   0  0
   -0.0155   -7.4989    0.0000 N   0  0
   -1.3163   -8.2475    0.0000 C   0  0
   -1.3194   -9.7484    0.0000 C   0  0
    4.9329   -3.1621    0.0000 Cl  0  0
   -1.3039    3.7494    0.0000 C   0  0
   -2.3421    3.1476    0.0000 O   0  0
   -1.3070    5.2502    0.0000 C   0  0
   -2.6078    5.9988    0.0000 C   0  0
   -2.6109    7.4996    0.0000 C   0  0
   -3.9118    8.2481    0.0000 N   0  0
   -3.9142    9.4481    0.0000 C   0  0
   -4.9499    7.6463    0.0000 C   0  0
   -2.6184  -10.4985    0.0000 C   0  0
   -2.6184  -11.9985    0.0000 C   0  0
   -1.3193  -12.7484    0.0000 C   0  0
   -0.0203  -11.9984    0.0000 C   0  0
   -0.0203  -10.4984    0.0000 C   0  0
   -2.3545   -7.6458    0.0000 C   0  0
   -3.9166  -12.7516    0.0000 O   0  0
   -3.9149  -13.9516    0.0000 C   0  0
  1  2  1  0
  2  3  2  0
  3  4  1  0
  4  5  2  0
  5  6  1  0
  1  6  2  0
  1  7  1  0
  3  8  1  0
  9 10  1  0
 10 11  2  0
 11 12  1  0
 12 13  2  0
 13 14  1  0
  9 14  2  0
 15 16  1  0
 17 18  1  0
 16 17  2  0
  9 15  1  0
 12 19  1  0
  7 11  1  0
  8 20  1  0
 20 21  2  0
 20 22  1  0
 22 23  2  0
 23 24  1  0
 24 25  1  0
 25 26  1  0
 25 27  1  0
 18 28  2  0
 28 29  1  0
 29 30  2  0
 30 31  1  0
 31 32  2  0
 32 18  1  0
 17 33  1  0
 34 35  1  0
 29 34  1  0
M  END
> <chembl_id>
CHEMBL3740103

$$$$

  SciTegic04091414152D

 40 45  0  0  0  0            999 V2000
   32.0857   -2.1499    0.0000 N   0  0
   32.0845   -2.9772    0.0000 C   0  0
   32.7994   -3.3902    0.0000 N   0  0
   32.7976   -1.7372    0.0000 C   0  0
   33.5129   -2.1463    0.0000 C   0  0
   33.5137   -2.9731    0.0000 C   0  0
   34.2290   -3.3841    0.0000 N   0  0
   34.9441   -2.9694    0.0000 C   0  0
   34.9392   -2.1393    0.0000 N   0  0
   34.2234   -1.7322    0.0000 C   0  0
   31.3698   -3.3892    0.0000 N   0  0
   35.6600   -3.3790    0.0000 O   0  0
   35.6512   -1.7225    0.0000 C   0  0
   31.3691   -4.2142    0.0000 C   0  0
   30.6542   -4.6246    0.0000 C   0  0
   30.6532   -5.4488    0.0000 C   0  0
   31.3679   -5.8627    0.0000 C   0  0
   32.0850   -5.4463    0.0000 C   0  0
   32.0825   -4.6235    0.0000 C   0  0
   31.3684   -6.6877    0.0000 C   0  0
   30.6537   -7.1012    0.0000 C   0  0
   30.6522   -7.9226    0.0000 C   0  0
   31.3650   -8.3386    0.0000 N   0  0
   32.0811   -7.9269    0.0000 C   0  0
   32.0843   -7.0993    0.0000 C   0  0
   31.3623   -9.1635    0.0000 C   0  0
   34.2307   -4.2091    0.0000 C   0  0  1  0  0  0
   33.5665   -4.6948    0.0000 C   0  0
   33.8231   -5.4789    0.0000 C   0  0
   34.6482   -5.4772    0.0000 N   0  0
   34.9014   -4.6921    0.0000 C   0  0
   35.0554   -6.1948    0.0000 C   0  0
   34.6380   -6.9064    0.0000 C   0  0
   35.8804   -6.2005    0.0000 O   0  0
   35.0455   -7.6237    0.0000 C   0  0
   36.3655   -2.1335    0.0000 C   0  0
   37.0753   -1.7202    0.0000 C   0  0
   37.0746   -0.8948    0.0000 C   0  0
   36.3577   -0.4845    0.0000 C   0  0
   35.6417   -0.8994    0.0000 C   0  0
  1  2  2  0
  2  3  1  0
  3  6  2  0
  5  4  2  0
  4  1  1  0
  5  6  1  0
  6  7  1  0
  7  8  1  0
  8  9  1  0
  9 10  1  0
 10  5  1  0
  2 11  1  0
  8 12  2  0
  9 13  1  0
 11 14  1  0
 14 15  2  0
 15 16  1  0
 16 17  2  0
 17 18  1  0
 18 19  2  0
 19 14  1  0
 17 20  1  0
 20 21  1  0
 20 25  1  0
 21 22  1  0
 22 23  1  0
 23 24  1  0
 24 25  1  0
 23 26  1  0
 27  7  1  6
 27 28  1  0
 28 29  1  0
 29 30  1  0
 30 31  1  0
 31 27  1  0
 30 32  1  0
 32 33  1  0
 32 34  2  0
 33 35  2  0
 13 36  2  0
 13 40  1  0
 36 37  1  0
 37 38  2  0
 38 39  1  0
 39 40  2  0
M  END
> <chembl_id>
CHEMBL3087193

$$$$

  SciTegic12201616162D

 39 43  0  0  0  0            999 V2000
    3.8942   -1.4964    0.0000 N   0  0
    5.1929   -0.7441    0.0000 C   0  0
    5.1908    0.4559    0.0000 S   0  0
    6.4942   -1.4919    0.0000 N   0  0
    7.7928   -0.7396    0.0000 C   0  0
    9.0941   -1.4873    0.0000 C   0  0
   12.9858    0.7740    0.0000 O   0  0
   12.9909   -0.7260    0.0000 C   0  0
   11.6945   -1.4805    0.0000 C   0  0
   10.3928   -0.7351    0.0000 N   0  0
   10.3877    0.7650    0.0000 C   0  0
   11.6841    1.5195    0.0000 C   0  0
   -1.2964    1.4973    0.0000 N   0  0
   -2.6111    0.7486    0.0000 C   0  0
   -2.6111   -0.7486    0.0000 N   0  0
   -1.2964   -1.4973    0.0000 C   0  0
    0.0000   -0.7486    0.0000 C   0  0
    1.2964   -1.4973    0.0000 C   0  0
    2.5929   -0.7486    0.0000 C   0  0
    2.5929    0.7486    0.0000 C   0  0
    1.2964    1.4973    0.0000 C   0  0
    0.0000    0.7486    0.0000 C   0  0
   -1.2907   -2.9981    0.0000 N   0  0
   -2.5870   -3.7544    0.0000 C   0  0
   -2.5835   -5.2544    0.0000 C   0  0
   -3.8807   -6.0076    0.0000 C   0  0
   -5.1815   -5.2608    0.0000 C   0  0
   -5.1852   -3.7608    0.0000 C   0  0
   -3.8880   -3.0076    0.0000 C   0  0
   -6.4810   -6.0117    0.0000 O   0  0
   -7.7815   -5.2626    0.0000 C   0  0
   -9.0810   -6.0135    0.0000 C   0  0
  -10.3819   -5.2667    0.0000 C   0  0
  -11.6791   -6.0199    0.0000 C   0  0
  -11.6755   -7.5199    0.0000 C   0  0
  -10.3746   -8.2667    0.0000 C   0  0
   -9.0774   -7.5136    0.0000 C   0  0
  -12.7198   -5.4224    0.0000 F   0  0
   -3.8777   -7.2076    0.0000 Cl  0  0
  1  2  1  0
  2  3  2  0
  2  4  1  0
  5  6  1  0
  7  8  1  0
  8  9  1  0
  9 10  1  0
 10 11  1  0
 11 12  1  0
  7 12  1  0
  6 10  1  0
  4  5  1  0
 13 14  1  0
 14 15  2  0
 15 16  1  0
 16 17  2  0
 17 18  1  0
 18 19  2  0
 19 20  1  0
 20 21  2  0
 21 22  1  0
 13 22  2  0
 17 22  1  0
 24 25  1  0
 25 26  2  0
 26 27  1  0
 27 28  2  0
 28 29  1  0
 24 29  2  0
 31 32  1  0
 32 33  1  0
 33 34  2  0
 34 35  1  0
 35 36  2  0
 36 37  1  0
 32 37  2  0
 34 38  1  0
 30 31  1  0
 27 30  1  0
 26 39  1  0
 23 24  1  0
 16 23  1  0
  1 19  1  0
M  END
> <chembl_id>
CHEMBL3813728

$$$$

  SciTegic09261414462D

 31 33  0  0  0  0            999 V2000
    8.0148  -17.7085    0.0000 N   0  0
    8.7245  -17.2990    0.0000 C   0  0
    8.7216  -16.4764    0.0000 N   0  0
    8.0130  -16.0711    0.0000 C   0  0
    7.3068  -17.2995    0.0000 C   0  0
    7.3080  -16.4830    0.0000 C   0  0
    6.5318  -16.2295    0.0000 C   0  0
    6.0508  -16.8894    0.0000 C   0  0
    6.5298  -17.5506    0.0000 S   0  0
    8.0093  -15.2539    0.0000 N   0  0
    8.7151  -14.8421    0.0000 C   0  0
    9.4225  -15.2522    0.0000 C   0  0
   10.1278  -14.8411    0.0000 C   0  0
   10.1245  -14.0230    0.0000 C   0  0
    9.4099  -13.6178    0.0000 C   0  0
    8.7075  -14.0313    0.0000 C   0  0
    5.2336  -16.8882    0.0000 N   0  0
    4.8260  -16.1799    0.0000 C   0  0
    4.0088  -16.1787    0.0000 C   0  0
    5.2357  -15.4728    0.0000 O   0  0
   10.8298  -13.6102    0.0000 F   0  0
   10.8372  -15.2467    0.0000 Cl  0  0
    3.6013  -15.4704    0.0000 C   0  0
    2.7841  -15.4692    0.0000 C   0  0
    2.3765  -14.7609    0.0000 N   0  0
    2.7861  -14.0538    0.0000 C   0  0
    2.3786  -13.3455    0.0000 C   0  0
    2.7882  -12.6384    0.0000 C   0  0
    2.3806  -11.9301    0.0000 N   0  0
    2.7902  -11.2230    0.0000 C   0  0
    1.5634  -11.9289    0.0000 C   0  0
  5  1  1  0
  1  2  2  0
  2  3  1  0
  3  4  2  0
  4  6  1  0
  5  6  2  0
  6  7  1  0
  7  8  2  0
  8  9  1  0
  9  5  1  0
  4 10  1  0
 10 11  1  0
 11 12  2  0
 12 13  1  0
 13 14  2  0
 14 15  1  0
 15 16  2  0
 16 11  1  0
  8 17  1  0
 17 18  1  0
 18 19  1  0
 18 20  2  0
 14 21  1  0
 13 22  1  0
 19 23  2  0
 23 24  1  0
 24 25  1  0
 25 26  1  0
 26 27  1  0
 27 28  1  0
 28 29  1  0
 29 30  1  0
 29 31  1  0
M  END
> <chembl_id>
CHEMBL3233772

$$$$

  SciTegic12161615062D

 32 35  0  0  0  0            999 V2000
    1.2990   -0.7500    0.0000 C   0  0
    1.2990    0.7500    0.0000 C   0  0
    0.0000    1.5000    0.0000 C   0  0
   -1.2990    0.7500    0.0000 C   0  0
   -1.2990   -0.7500    0.0000 C   0  0
    0.0000   -1.5000    0.0000 N   0  0
    2.5972    1.5031    0.0000 C   0  0
    3.6375    0.9049    0.0000 O   0  0
    2.5951    3.0039    0.0000 N   0  0
    2.3383   -1.3500    0.0000 O   0  0
   -0.0031    3.0008    0.0000 N   0  0
   -1.3039    3.7494    0.0000 C   0  0
   -1.3092    5.2494    0.0000 C   0  0
   -2.6108    5.9949    0.0000 C   0  0
   -3.9073    5.2404    0.0000 C   0  0
   -3.9021    3.7404    0.0000 C   0  0
   -2.6005    2.9949    0.0000 C   0  0
   -0.0136    6.0070    0.0000 O   0  0
   -0.0195    7.2070    0.0000 C   0  0
    3.8933    3.7570    0.0000 C   0  0
    3.8933    5.2571    0.0000 C   0  0
    5.1924    6.0071    0.0000 N   0  0
    6.4914    5.2571    0.0000 C   0  0
    6.4915    3.7571    0.0000 C   0  0
    5.1925    3.0071    0.0000 C   0  0
    7.7911    6.0075    0.0000 N   0  0
    7.7935    7.5076    0.0000 C   0  0
    9.0937    8.2556    0.0000 C   0  0
   10.3916    7.5036    0.0000 N   0  0
   10.3893    6.0036    0.0000 C   0  0
    9.0891    5.2556    0.0000 C   0  0
   11.4318    8.1019    0.0000 C   0  0
  1  2  1  0
  2  3  2  0
  3  4  1  0
  4  5  2  0
  5  6  1  0
  1  6  1  0
  7  8  2  0
  7  9  1  0
  2  7  1  0
  1 10  2  0
  3 11  1  0
 11 12  1  0
 12 13  2  0
 13 14  1  0
 14 15  2  0
 15 16  1  0
 16 17  2  0
 17 12  1  0
 13 18  1  0
 18 19  1  0
  9 20  1  0
 20 21  2  0
 21 22  1  0
 22 23  2  0
 23 24  1  0
 24 25  2  0
 25 20  1  0
 23 26  1  0
 26 27  1  0
 26 31  1  0
 27 28  1  0
 28 29  1  0
 29 30  1  0
 30 31  1  0
 29 32  1  0
M  END
> <chembl_id>
CHEMBL3781462

$$$$

  SciTegic01181116592D

 43 49  0  0  0  0            999 V2000
   28.2906   -1.4738    0.0000 C   0  0  2  0  0  0
   27.7413   -2.0849    0.0000 C   0  0
   27.9940   -2.8662    0.0000 C   0  0
   28.8003   -3.0410    0.0000 C   0  0  1  0  0  0
   29.3535   -2.4282    0.0000 C   0  0
   29.1005   -1.6406    0.0000 C   0  0
   28.0329   -0.6904    0.0000 N   0  0
   32.3446    2.7337    0.0000 C   0  0
   33.0607    3.1468    0.0000 C   0  0
   33.0578    3.9770    0.0000 C   0  0
   32.3428    4.3937    0.0000 C   0  0
   31.6300    3.1464    0.0000 C   0  0
   31.6313    3.9749    0.0000 C   0  0
   30.8436    4.2393    0.0000 N   0  0
   30.3555    3.5625    0.0000 C   0  0
   30.8416    2.8916    0.0000 O   0  0
   29.5309    3.5637    0.0000 N   0  0
   29.1175    2.8502    0.0000 C   0  0
   28.2946    2.8547    0.0000 C   0  0
   27.8814    2.1419    0.0000 C   0  0
   28.2927    1.4262    0.0000 C   0  0
   29.1215    1.4276    0.0000 C   0  0
   29.5312    2.1409    0.0000 C   0  0
   28.0391    0.6417    0.0000 C   0  0
   28.5189   -0.0221    0.0000 N   0  0
   27.2503   -0.4356    0.0000 C   0  0
   27.2521    0.3882    0.0000 C   0  0
   26.5407    0.7999    0.0000 C   0  0
   25.8270    0.3888    0.0000 N   0  0
   25.8292   -0.4381    0.0000 C   0  0
   26.5412   -0.8460    0.0000 N   0  0
   29.0530   -3.8260    0.0000 N   0  0
   28.5006   -4.4357    0.0000 C   0  0
   28.7503   -5.2179    0.0000 C   0  0
   29.5559   -5.3958    0.0000 N   0  0
   30.1114   -4.7851    0.0000 C   0  0
   29.8614   -3.9965    0.0000 C   0  0
   29.8056   -6.1818    0.0000 C   0  0
   26.5418    1.6245    0.0000 N   0  0
   32.3444    1.9090    0.0000 C   0  0
   31.6301    1.4969    0.0000 O   0  0
   33.0584    1.4965    0.0000 O   0  0
   33.0582    0.6718    0.0000 C   0  0
 20 21  2  0
  3  4  1  0
 21 22  1  0
 10 11  2  0
 22 23  2  0
 23 18  1  0
 11 13  1  0
 21 24  1  0
 24 27  1  0
 12 13  2  0
 26  7  1  0
  7 25  1  0
 25 24  2  0
  4  5  1  0
  5  6  1  0
 26 27  2  0
  1  2  1  0
 27 28  1  0
  1  7  1  1
 28 29  2  0
 29 30  1  0
 13 14  1  0
 30 31  2  0
 31 26  1  0
 14 15  2  0
  4 32  1  1
 32 33  1  0
 15 16  1  0
 16 12  1  0
 12  8  1  0
 15 17  1  0
  1  6  1  0
 32 37  1  0
 33 34  1  0
 34 35  1  0
 35 36  1  0
 36 37  1  0
 17 18  1  0
 35 38  1  0
  8  9  2  0
 28 39  1  0
 18 19  2  0
  8 40  1  0
  2  3  1  0
 40 41  2  0
 19 20  1  0
 40 42  1  0
  9 10  1  0
 42 43  1  0
M  END
> <chembl_id>
CHEMBL1256420

$$$$

  SciTegic05221516342D

 39 42  0  0  0  0            999 V2000
   11.4576  -26.2213    0.0000 C   0  0
   11.8662  -25.5122    0.0000 C   0  0
   11.4576  -24.8073    0.0000 C   0  0
   11.8662  -24.0982    0.0000 C   0  0
   11.8662  -26.9263    0.0000 O   0  0
   10.6404  -26.2213    0.0000 N   0  0
   12.6834  -25.5122    0.0000 F   0  0
   12.6834  -24.0982    0.0000 N   0  0
   13.0920  -23.3891    0.0000 C   0  0
   13.0920  -24.8073    0.0000 C   0  0
    9.0060  -29.0494    0.0000 N   0  0
    8.1888  -29.0494    0.0000 C   0  0
    7.7802  -28.3445    0.0000 N   0  0
    8.1888  -27.6354    0.0000 C   0  0
    9.0060  -27.6354    0.0000 C   0  0
    9.4146  -26.9263    0.0000 C   0  0
   10.2318  -26.9263    0.0000 C   0  0
   10.6404  -27.6354    0.0000 C   0  0
   10.2318  -28.3445    0.0000 C   0  0
    9.4146  -28.3445    0.0000 C   0  0
   11.4576  -27.6354    0.0000 O   0  0
   11.8662  -28.3445    0.0000 C   0  0
    7.7802  -26.9263    0.0000 N   0  0
    6.9630  -26.9263    0.0000 C   0  0
    6.5545  -27.6354    0.0000 C   0  0
    5.7373  -27.6354    0.0000 C   0  0
    5.3287  -26.9263    0.0000 C   0  0
    5.7373  -26.2213    0.0000 C   0  0
    6.5545  -26.2213    0.0000 C   0  0
    4.5115  -26.9263    0.0000 O   0  0
    4.1029  -26.2213    0.0000 C   0  0
    3.2857  -26.2213    0.0000 C   0  0
    2.8771  -26.9263    0.0000 C   0  0
    2.0599  -26.9263    0.0000 C   0  0
    1.6513  -26.2213    0.0000 C   0  0
    2.0599  -25.5122    0.0000 C   0  0
    2.8771  -25.5122    0.0000 C   0  0
    1.6513  -27.6354    0.0000 F   0  0
    5.3287  -28.3445    0.0000 Cl  0  0
  1  2  1  0
  2  3  2  0
  3  4  1  0
  1  5  2  0
  1  6  1  0
  2  7  1  0
  8  9  1  0
  8 10  1  0
  4  8  1  0
 11 12  1  0
 12 13  2  0
 13 14  1  0
 14 15  2  0
 15 16  1  0
 16 17  2  0
 17 18  1  0
 18 19  2  0
 19 20  1  0
 11 20  2  0
 15 20  1  0
 21 22  1  0
 18 21  1  0
 24 25  1  0
 25 26  2  0
 26 27  1  0
 27 28  2  0
 28 29  1  0
 24 29  2  0
 31 32  1  0
 32 33  1  0
 33 34  2  0
 34 35  1  0
 35 36  2  0
 36 37  1  0
 32 37  2  0
 34 38  1  0
 30 31  1  0
 27 30  1  0
 26 39  1  0
 23 24  1  0
 14 23  1  0
  6 17  1  0
M  END
> <chembl_id>
CHEMBL3357649

$$$$

  SciTegic10011413212D

 47 52  0  0  0  0            999 V2000
    1.5601  -19.2742    0.0000 C   0  0
    1.5601  -20.0913    0.0000 C   0  0
    2.2654  -20.4958    0.0000 N   0  0
    2.9707  -20.0913    0.0000 C   0  0
    2.9707  -19.2742    0.0000 C   0  0
    2.2654  -18.8614    0.0000 N   0  0
    2.2654  -21.3130    0.0000 C   0  0
    2.2658  -18.0451    0.0000 C   0  0
    2.9751  -17.6371    0.0000 C   0  0
    2.9755  -16.8207    0.0000 C   0  0
    2.2672  -16.4112    0.0000 C   0  0
    1.5572  -16.8242    0.0000 C   0  0
    1.5603  -17.6393    0.0000 C   0  0
    0.8480  -16.4181    0.0000 O   0  0
    0.1418  -16.8292    0.0000 C   0  0
    2.2662  -15.5941    0.0000 N   0  0
    2.9733  -15.1845    0.0000 C   0  0
    3.6799  -15.5964    0.0000 N   0  0
    3.6727  -13.9620    0.0000 C   0  0
    2.9689  -14.3732    0.0000 N   0  0
    4.3909  -15.1860    0.0000 C   0  0
    4.3859  -14.3694    0.0000 C   0  0
    5.0239  -13.8507    0.0000 C   0  0
    5.0381  -15.6932    0.0000 N   0  0
    5.8375  -15.5026    0.0000 C   0  0
    5.8221  -14.0220    0.0000 N   0  0
    6.1847  -14.7583    0.0000 C   0  0
    4.8331  -13.0561    0.0000 O   0  0
    6.3540  -16.1359    0.0000 O   0  0
    4.8657  -16.4876    0.0000 C   0  0
    4.0856  -16.7346    0.0000 C   0  0
    3.9108  -17.5321    0.0000 C   0  0
    4.5152  -18.0834    0.0000 C   0  0
    5.2971  -17.8316    0.0000 C   0  0
    5.4682  -17.0347    0.0000 C   0  0
    5.9031  -18.3799    0.0000 N   0  0
    5.7314  -19.1788    0.0000 C   0  0
    6.3374  -19.7270    0.0000 C   0  0
    4.9536  -19.4295    0.0000 O   0  0
    6.1656  -20.5259    0.0000 C   0  0
    6.3247  -13.3776    0.0000 C   0  0
    7.1340  -13.4906    0.0000 C   0  0
    7.4356  -14.2482    0.0000 C   0  0
    8.2441  -14.3615    0.0000 C   0  0
    8.7476  -13.7167    0.0000 C   0  0
    8.4367  -12.9563    0.0000 C   0  0
    7.6290  -12.8467    0.0000 C   0  0
  1  2  1  0
  1  6  1  0
  2  3  1  0
  3  4  1  0
  4  5  1  0
  5  6  1  0
  3  7  1  0
  8  9  2  0
  9 10  1  0
 10 11  2  0
 11 12  1  0
 12 13  2  0
 13  8  1  0
  6  8  1  0
 12 14  1  0
 14 15  1  0
 11 16  1  0
 16 17  1  0
 17 18  2  0
 18 21  1  0
 22 19  1  0
 19 20  2  0
 20 17  1  0
 21 22  2  0
 22 23  1  0
 21 24  1  0
 23 26  1  0
 24 25  1  0
 25 27  1  0
 26 27  1  0
 23 28  2  0
 25 29  2  0
 30 31  2  0
 31 32  1  0
 32 33  2  0
 33 34  1  0
 34 35  2  0
 35 30  1  0
 24 30  1  0
 34 36  1  0
 36 37  1  0
 37 38  1  0
 37 39  2  0
 38 40  2  0
 26 41  1  0
 41 42  1  0
 42 43  2  0
 43 44  1  0
 44 45  2  0
 45 46  1  0
 46 47  2  0
 47 42  1  0
M  END
> <chembl_id>
CHEMBL3219348

$$$$

  SciTegic01181116592D

 26 29  0  0  0  0            999 V2000
   -0.4632   -0.9577    0.0000 N   0  0
    0.2539   -0.5440    0.0000 C   0  0
    0.2510    0.2872    0.0000 N   0  0
   -0.4650    0.6967    0.0000 C   0  0
   -0.4674    1.5224    0.0000 N   0  0
   -1.1786   -0.5445    0.0000 C   0  0
   -1.1819    0.2805    0.0000 C   0  0
   -1.9622   -0.8025    0.0000 S   0  0
   -2.4499   -0.1371    0.0000 C   0  0
   -1.9679    0.5307    0.0000 C   0  0
   -2.3033    1.2778    0.0000 C   0  0
   -3.1217    1.3636    0.0000 C   0  0
   -3.6037    0.6963    0.0000 N   0  0
   -3.2673   -0.0576    0.0000 C   0  0
    0.2464    1.9375    0.0000 C   0  0  1  0  0  0
    0.9627    1.5267    0.0000 C   0  0
    0.2439    2.7632    0.0000 C   0  0
    0.9630    0.7037    0.0000 C   0  0
    1.6784    0.2931    0.0000 C   0  0
    2.3934    0.7081    0.0000 C   0  0
    2.3882    1.5380    0.0000 C   0  0
    1.6721    1.9450    0.0000 C   0  0
   -4.4330    0.6964    0.0000 C   0  0
   -4.8459   -0.0186    0.0000 O   0  0
   -4.8458    1.4116    0.0000 C   0  0
   -4.4328    2.1266    0.0000 C   0  0
  9 14  1  0
 10 11  1  0
 11 12  1  0
 12 13  1  0
 13 14  1  0
  2  3  1  0
  5 15  1  0
 15 16  1  0
  7 10  1  0
 15 17  1  6
  9  8  1  0
 16 18  2  0
  8  6  1  0
 18 19  1  0
  9 10  2  0
 19 20  2  0
  3  4  2  0
 20 21  1  0
  4  7  1  0
 21 22  2  0
 22 16  1  0
  1  2  2  0
 13 23  1  0
  4  5  1  0
 23 24  2  0
  6  7  2  0
 23 25  1  0
  6  1  1  0
 25 26  2  0
M  END
> <chembl_id>
CHEMBL1272222

$$$$

  SciTegic05061409512D

 26 29  0  0  0  0            999 V2000
   20.9658  -23.1207    0.0000 N   0  0
   21.6711  -22.7163    0.0000 C   0  0
   21.6711  -21.8991    0.0000 N   0  0
   20.9658  -21.4864    0.0000 C   0  0
   20.2606  -22.7163    0.0000 C   0  0
   20.2561  -21.8991    0.0000 C   0  0
   19.4848  -22.9730    0.0000 S   0  0
   19.0008  -22.3146    0.0000 C   0  0
   19.4763  -21.6547    0.0000 C   0  0
   19.1443  -20.9171    0.0000 C   0  0
   18.3360  -20.8331    0.0000 C   0  0
   17.8605  -21.4930    0.0000 N   0  0
   18.1934  -22.2369    0.0000 C   0  0
   20.9670  -20.6692    0.0000 N   0  0
   17.0475  -21.4100    0.0000 C   0  0
   16.7130  -20.6645    0.0000 C   0  0
   16.5692  -22.0726    0.0000 O   0  0
   17.1913  -20.0019    0.0000 C   0  0
   21.6752  -20.2615    0.0000 C   0  0
   22.3816  -20.6727    0.0000 C   0  0
   23.0894  -20.2657    0.0000 C   0  0
   23.0909  -19.4476    0.0000 C   0  0
   22.3788  -19.0382    0.0000 C   0  0
   21.6739  -19.4475    0.0000 C   0  0
   20.9654  -19.0404    0.0000 F   0  0
   23.7986  -19.0391    0.0000 Br  0  0
  6  4  1  0
  5  1  1  0
  1  2  2  0
  2  3  1  0
  3  4  2  0
  5  6  2  0
  6  9  1  0
  8  7  1  0
  7  5  1  0
  8  9  2  0
  8 13  1  0
  9 10  1  0
 10 11  1  0
 11 12  1  0
 12 13  1  0
  4 14  1  0
 12 15  1  0
 15 16  1  0
 15 17  2  0
 16 18  2  0
 14 19  1  0
 19 20  2  0
 20 21  1  0
 21 22  2  0
 22 23  1  0
 23 24  2  0
 24 19  1  0
 24 25  1  0
 22 26  1  0
M  END
> <chembl_id>
CHEMBL3133896

$$$$

  SciTegic09081514182D

 35 36  0  0  0  0            999 V2000
    1.2990   -0.7500    0.0000 C   0  0
    1.2990    0.7500    0.0000 C   0  0
    0.0000    1.5000    0.0000 C   0  0
   -1.2990    0.7500    0.0000 C   0  0
   -1.2990   -0.7500    0.0000 C   0  0
    0.0000   -1.5000    0.0000 C   0  0
   -2.5972   -1.5031    0.0000 C   0  0
   -2.5951   -3.0039    0.0000 C   0  0
   -3.8933   -3.7570    0.0000 C   0  0
   -3.8912   -5.2578    0.0000 C   0  0
   -4.9336   -3.1588    0.0000 O   0  0
   -5.1894   -6.0109    0.0000 C   0  0
   -5.1872   -7.5117    0.0000 C   0  0
   -6.2296   -5.4127    0.0000 O   0  0
   -6.4854   -8.2648    0.0000 C   0  0
   -6.4833   -9.7657    0.0000 C   0  0
   -7.7797  -10.5203    0.0000 C   0  0
   -7.7745  -12.0202    0.0000 C   0  0
   -6.4729  -12.7657    0.0000 C   0  0
   -5.1764  -12.0112    0.0000 C   0  0
   -5.1816  -10.5113    0.0000 C   0  0
    2.5973   -1.5031    0.0000 O   0  0
    2.5972    1.5031    0.0000 O   0  0
   -6.4708  -14.2666    0.0000 O   0  0
   -3.8726  -12.7545    0.0000 O   0  0
    2.5956   -2.7031    0.0000 C   0  0
    2.5951    3.0039    0.0000 C   0  0
    3.8933    3.7570    0.0000 C   0  0
    4.9336    3.1588    0.0000 O   0  0
    3.8916    4.9570    0.0000 O   0  0
   -2.8363  -12.1494    0.0000 C   0  0
   -7.7690  -15.0196    0.0000 C   0  0
   -7.7669  -16.5205    0.0000 C   0  0
   -6.7266  -17.1187    0.0000 O   0  0
   -8.8049  -17.1226    0.0000 O   0  0
  1  2  2  0
  2  3  1  0
  3  4  2  0
  4  5  1  0
  5  6  2  0
  6  1  1  0
  5  7  1  0
  7  8  2  0
  8  9  1  0
  9 10  2  0
  9 11  1  0
 10 12  1  0
 12 13  1  0
 12 14  2  0
 13 15  2  0
 15 16  1  0
 16 17  2  0
 17 18  1  0
 18 19  2  0
 19 20  1  0
 20 21  2  0
 21 16  1  0
  1 22  1  0
  2 23  1  0
 19 24  1  0
 20 25  1  0
 22 26  1  0
 23 27  1  0
 27 28  1  0
 28 29  1  0
 28 30  2  0
 25 31  1  0
 24 32  1  0
 32 33  1  0
 33 34  1  0
 33 35  2  0
M  END
> <chembl_id>
CHEMBL3402858

$$$$

  SciTegic06051313552D

 29 33  0  0  0  0            999 V2000
    1.7196  -13.7065    0.0000 C   0  0
    1.7185  -14.5260    0.0000 C   0  0
    2.4265  -14.9350    0.0000 C   0  0
    3.1362  -14.5256    0.0000 C   0  0
    3.1334  -13.7028    0.0000 C   0  0
    2.4247  -13.2976    0.0000 C   0  0
    3.8140  -13.2507    0.0000 C   0  0
    4.5813  -13.5319    0.0000 C   0  0
    5.0859  -12.8891    0.0000 C   0  0
    4.6300  -12.2111    0.0000 N   0  0
    3.8444  -12.4341    0.0000 N   0  0
    5.0355  -11.5017    0.0000 C   0  0
    5.9003  -12.9192    0.0000 C   0  0
    7.1464  -12.2559    0.0000 C   0  0
    6.3317  -12.2291    0.0000 C   0  0
    5.8506  -11.5012    0.0000 C   0  0
    6.2561  -10.7926    0.0000 C   0  0
    5.8444  -10.0857    0.0000 C   0  0
    5.0230  -10.0918    0.0000 C   0  0
    4.6212  -10.8010    0.0000 C   0  0
    6.2824  -13.6401    0.0000 C   0  0
    7.5314  -12.9790    0.0000 C   0  0
    7.0974  -13.6711    0.0000 C   0  0
    7.4798  -14.3909    0.0000 C   0  0
    8.2960  -14.4198    0.0000 C   0  0
    8.7283  -13.7229    0.0000 C   0  0
    8.3434  -13.0060    0.0000 C   0  0
    1.0105  -14.9341    0.0000 Cl  0  0
    2.4263  -15.7522    0.0000 Cl  0  0
  1  2  2  0
  2  3  1  0
  3  4  2  0
  4  5  1  0
  5  6  2  0
  6  1  1  0
  7  8  1  0
  8  9  1  0
  9 10  1  0
 10 11  1  0
 11  7  2  0
  5  7  1  0
 10 12  1  0
 13 21  2  0
 22 14  1  0
 14 15  2  0
 15 13  1  0
  9 13  1  0
 12 16  2  0
 16 17  1  0
 17 18  2  0
 18 19  1  0
 19 20  2  0
 20 12  1  0
 23 21  1  0
 22 23  1  0
 23 24  2  0
 24 25  1  0
 25 26  2  0
 26 27  1  0
 27 22  2  0
  2 28  1  0
  3 29  1  0
M  END
> <chembl_id>
CHEMBL2325101

$$$$

  SciTegic12171313022D

 34 37  0  0  0  0            999 V2000
   26.5944  -13.4836    0.0000 C   0  0
   26.5933  -14.3032    0.0000 C   0  0
   27.3013  -14.7121    0.0000 N   0  0
   28.0110  -14.3027    0.0000 C   0  0
   28.0082  -13.4800    0.0000 N   0  0
   27.2996  -13.0748    0.0000 C   0  0
   25.8866  -13.0752    0.0000 F   0  0
   27.2976  -12.2576    0.0000 C   0  0
   27.9573  -11.7753    0.0000 C   0  0
   27.7024  -10.9989    0.0000 N   0  0
   26.6351  -11.7793    0.0000 C   0  0
   26.8881  -11.0022    0.0000 N   0  0
   26.3421  -10.3966    0.0000 C   0  0
   25.5430  -10.5670    0.0000 C   0  0
   25.2929  -11.3482    0.0000 C   0  0
   25.8406  -11.9505    0.0000 C   0  0
   28.7194  -14.7102    0.0000 N   0  0
   29.4264  -14.3005    0.0000 C   0  0
   30.1314  -14.7084    0.0000 C   0  0
   30.8380  -14.2994    0.0000 C   0  0
   29.4202  -13.4853    0.0000 C   0  0
   30.1315  -15.5256    0.0000 O   0  0
   29.4239  -15.9342    0.0000 C   0  0
   30.1200  -13.0732    0.0000 C   0  0
   30.8333  -13.4821    0.0000 C   0  0
   30.1152  -12.2560    0.0000 N   0  0
   30.8205  -11.8433    0.0000 C   0  0
   30.8157  -11.0261    0.0000 C   0  0
   31.5306  -12.2477    0.0000 O   0  0
   31.5210  -10.6134    0.0000 C   0  0
   31.5162   -9.7962    0.0000 C   0  0
   32.2215   -9.3834    0.0000 N   0  0
   32.2167   -8.5700    0.0000 C   0  0
   32.9316   -9.7879    0.0000 C   0  0
  1  2  2  0
  2  3  1  0
  3  4  2  0
  4  5  1  0
  5  6  2  0
  6  1  1  0
  1  7  1  0
  8  9  1  0
  9 10  2  0
 10 12  1  0
 11  8  2  0
  6  8  1  0
 11 12  1  0
 12 13  1  0
 13 14  2  0
 14 15  1  0
 15 16  2  0
 16 11  1  0
  4 17  1  0
 17 18  1  0
 18 19  2  0
 19 20  1  0
 20 25  2  0
 24 21  2  0
 21 18  1  0
 19 22  1  0
 22 23  1  0
 24 25  1  0
 24 26  1  0
 26 27  1  0
 27 28  1  0
 27 29  2  0
 28 30  2  0
 30 31  1  0
 31 32  1  0
 32 33  1  0
 32 34  1  0
M  END
> <chembl_id>
CHEMBL2426290

$$$$

  SciTegic12131613492D

 30 34  0  0  0  0            999 V2000
   -6.2062   -8.4334    0.0000 F   0  0
   -5.8308   -7.2937    0.0000 C   0  0
   -6.6304   -6.3989    0.0000 F   0  0
    0.8955    2.0810    0.0000 C   0  0
    1.7138    1.2033    0.0000 C   0  0
    2.8908    1.4370    0.0000 C   0  0
   -1.0028    1.5132    0.0000 N   0  0
   -2.3155    0.7475    0.0000 C   0  0
   -2.3155   -0.7475    0.0000 N   0  0
   -1.0028   -1.5132    0.0000 C   0  0
    0.2917    0.7475    0.0000 C   0  0
    0.2917   -0.7475    0.0000 C   0  0
    1.7138   -1.2033    0.0000 C   0  0
    2.5889    0.0182    0.0000 O   0  0
   -3.6168    1.4950    0.0000 C   0  0
   -4.9669    0.8708    0.0000 C   0  0
   -5.9732    1.9832    0.0000 N   0  0
   -5.2262    3.2840    0.0000 N   0  0
   -3.7582    2.9755    0.0000 C   0  0
   -0.9971   -3.0138    0.0000 N   0  0
   -2.2935   -3.7700    0.0000 C   0  0
   -4.6304   -4.2656    0.0000 N   0  0
   -3.6203   -3.1531    0.0000 N   0  0
   -3.8857   -5.5600    0.0000 C   0  0
   -2.4241   -5.2456    0.0000 C   0  0
   -1.4032   -6.3500    0.0000 C   0  0
   -1.8757   -7.7944    0.0000 C   0  0
   -3.3373   -8.1089    0.0000 C   0  0
   -4.3620   -6.9866    0.0000 C   0  0
   -7.0055   -7.5386    0.0000 F   0  0
  2  1  1  0
  3  2  1  0
  5  4  1  0
  6  5  1  0
 11  7  1  0
  7  8  2  0
  8  9  1  0
  9 10  2  0
 10 12  1  0
 11 12  2  0
 12 13  1  0
 13 14  1  0
 14  5  1  0
  5 11  1  0
  8 15  1  0
 15 16  2  0
 16 17  1  0
 17 18  1  0
 18 19  2  0
 19 15  1  0
 10 20  1  0
 20 21  1  0
 21 25  1  0
 24 22  1  0
 22 23  1  0
 23 21  2  0
 24 25  2  0
 25 26  1  0
 26 27  2  0
 27 28  1  0
 28 29  2  0
 29 24  1  0
 29  2  1  0
  2 30  1  0
M  END
> <chembl_id>
CHEMBL3758948

$$$$

  SciTegic01161211252D

 30 34  0  0  0  0            999 V2000
    6.5045   -1.7362    0.0000 C   0  0
    6.5315   -0.8789    0.0000 C   0  0
    5.8292   -0.4461    0.0000 C   0  0
    5.1016   -0.8385    0.0000 C   0  0
    5.0808   -1.6685    0.0000 C   0  0
    5.7840   -2.0976    0.0000 C   0  0
    4.3948   -4.4833    0.0000 C   0  0
    4.3937   -5.3114    0.0000 C   0  0
    5.1092   -5.7247    0.0000 C   0  0
    5.8263   -5.3110    0.0000 C   0  0
    5.8235   -4.4796    0.0000 C   0  0
    5.1074   -4.0701    0.0000 C   0  0
    6.5426   -5.7203    0.0000 C   0  0
    6.6303   -6.5414    0.0000 C   0  0
    7.2965   -5.3833    0.0000 N   0  0
    7.8501   -5.9960    0.0000 C   0  0
    7.4404   -6.7111    0.0000 N   0  0
    7.9939   -7.3216    0.0000 C   0  0
    8.7457   -6.9839    0.0000 C   0  0
    8.6567   -6.1646    0.0000 S   0  0
    6.0193   -7.0952    0.0000 C   0  0
    5.2327   -6.8402    0.0000 C   0  0
    4.6206   -7.3934    0.0000 C   0  0
    6.1935   -7.8991    0.0000 C   0  0
    5.5849   -8.4539    0.0000 C   0  0
    4.7904   -8.2033    0.0000 N   0  0
    5.1050   -3.2819    0.0000 N   0  0
    5.7864   -2.8858    0.0000 C   0  0
    6.4702   -3.2777    0.0000 O   0  0
    7.1997   -2.1805    0.0000 Cl  0  0
  1  2  2  0
  2  3  1  0
  3  4  2  0
 20 16  1  0
  7  8  2  0
  9 10  2  0
 21 22  2  0
 22 23  1  0
 23 26  2  0
 14 17  1  0
 25 24  2  0
 24 21  1  0
 14 21  1  0
 25 26  1  0
 16 15  2  0
 15 13  1  0
 10 13  1  0
 16 17  1  0
 10 11  1  0
  8  9  1  0
 11 12  2  0
 12  7  1  0
 13 14  2  0
 17 18  1  0
 18 19  2  0
 19 20  1  0
  4  5  1  0
 12 27  1  0
  5  6  2  0
 27 28  1  0
 28  6  1  0
  6  1  1  0
 28 29  2  0
  1 30  1  0
M  END
> <chembl_id>
CHEMBL1091613

$$$$

  SciTegic04091414152D

 42 47  0  0  0  0            999 V2000
   13.1817  -12.0665    0.0000 N   0  0
   13.1806  -12.8939    0.0000 C   0  0
   13.8954  -13.3067    0.0000 N   0  0
   13.8936  -11.6538    0.0000 C   0  0
   14.6090  -12.0628    0.0000 C   0  0
   14.6097  -12.8897    0.0000 C   0  0
   15.3251  -13.3007    0.0000 N   0  0
   16.0400  -12.8859    0.0000 C   0  0
   16.0353  -12.0559    0.0000 N   0  0
   15.3194  -11.6487    0.0000 C   0  0
   12.4659  -13.3058    0.0000 N   0  0
   16.7561  -13.2956    0.0000 O   0  0
   16.7472  -11.6391    0.0000 C   0  0
   12.4652  -14.1308    0.0000 C   0  0
   11.7503  -14.5412    0.0000 C   0  0
   11.7493  -15.3654    0.0000 C   0  0
   12.4639  -15.7793    0.0000 C   0  0
   13.1811  -15.3628    0.0000 C   0  0
   13.1786  -14.5401    0.0000 C   0  0
   12.4643  -16.6043    0.0000 N   0  0
   11.7497  -17.0178    0.0000 C   0  0
   11.7482  -17.8392    0.0000 C   0  0
   12.4610  -18.2552    0.0000 N   0  0
   13.1771  -17.8435    0.0000 C   0  0
   13.1803  -17.0159    0.0000 C   0  0
   12.4584  -19.0802    0.0000 C   0  0
   15.3268  -14.1256    0.0000 C   0  0  1  0  0  0
   14.6626  -14.6113    0.0000 C   0  0
   14.9192  -15.3955    0.0000 C   0  0
   15.7443  -15.3937    0.0000 N   0  0
   15.9973  -14.6086    0.0000 C   0  0
   16.1515  -16.1113    0.0000 C   0  0
   15.7341  -16.8230    0.0000 C   0  0
   16.9764  -16.1171    0.0000 O   0  0
   16.1416  -17.5402    0.0000 C   0  0
   17.4616  -12.0500    0.0000 C   0  0
   18.1714  -11.6367    0.0000 C   0  0
   18.1706  -10.8113    0.0000 C   0  0
   17.4538  -10.4010    0.0000 C   0  0
   16.7377  -10.8160    0.0000 C   0  0
   11.0342  -15.7770    0.0000 O   0  0
   10.3204  -15.3636    0.0000 C   0  0
  1  2  2  0
  2  3  1  0
  3  6  2  0
  5  4  2  0
  4  1  1  0
  5  6  1  0
  6  7  1  0
  7  8  1  0
  8  9  1  0
  9 10  1  0
 10  5  1  0
  2 11  1  0
  8 12  2  0
  9 13  1  0
 11 14  1  0
 14 15  2  0
 15 16  1  0
 16 17  2  0
 17 18  1  0
 18 19  2  0
 19 14  1  0
 17 20  1  0
 20 21  1  0
 20 25  1  0
 21 22  1  0
 22 23  1  0
 23 24  1  0
 24 25  1  0
 23 26  1  0
 27  7  1  6
 27 28  1  0
 28 29  1  0
 29 30  1  0
 30 31  1  0
 31 27  1  0
 30 32  1  0
 32 33  1  0
 32 34  2  0
 33 35  2  0
 13 36  2  0
 13 40  1  0
 36 37  1  0
 37 38  2  0
 38 39  1  0
 39 40  2  0
 16 41  1  0
 41 42  1  0
M  END
> <chembl_id>
CHEMBL3086106

$$$$

  Mrv0541 04051115152D          

 36 39  0  0  0  0            999 V2000
    2.4620   -3.5030    0.0000 C   0  0  0  0  0  0  0  0  0  0  0  0
    1.0331   -3.5030    0.0000 C   0  0  0  0  0  0  0  0  0  0  0  0
   -1.1104    0.2095    0.0000 C   0  0  0  0  0  0  0  0  0  0  0  0
   -1.8248    0.6220    0.0000 C   0  0  0  0  0  0  0  0  0  0  0  0
    2.4620   -4.3280    0.0000 C   0  0  0  0  0  0  0  0  0  0  0  0
    1.0331   -4.3280    0.0000 C   0  0  0  0  0  0  0  0  0  0  0  0
   -1.8248    3.0970    0.0000 C   0  0  0  0  0  0  0  0  0  0  0  0
   -0.3959    1.4470    0.0000 C   0  0  0  0  0  0  0  0  0  0  0  0
   -1.8248    3.9220    0.0000 C   0  0  0  0  0  0  0  0  0  0  0  0
    1.7475   -3.0905    0.0000 C   0  0  0  0  0  0  0  0  0  0  0  0
   -0.3959    0.6220    0.0000 C   0  0  0  0  0  0  0  0  0  0  0  0
   -1.8248    1.4470    0.0000 C   0  0  0  0  0  0  0  0  0  0  0  0
   -2.5393    2.6845    0.0000 C   0  0  0  0  0  0  0  0  0  0  0  0
    1.7475   -4.7405    0.0000 C   0  0  0  0  0  0  0  0  0  0  0  0
   -1.1104    1.8595    0.0000 C   0  0  0  0  0  0  0  0  0  0  0  0
   -3.2538    3.0970    0.0000 C   0  0  0  0  0  0  0  0  0  0  0  0
   -3.2538    3.9220    0.0000 C   0  0  0  0  0  0  0  0  0  0  0  0
    2.4620   -1.0280    0.0000 C   0  0  0  0  0  0  0  0  0  0  0  0
    2.4620   -1.8530    0.0000 C   0  0  0  0  0  0  0  0  0  0  0  0
    1.0331   -1.0280    0.0000 C   0  0  0  0  0  0  0  0  0  0  0  0
    1.7475   -0.6155    0.0000 C   0  0  0  0  0  0  0  0  0  0  0  0
    1.0331   -1.8530    0.0000 C   0  0  0  0  0  0  0  0  0  0  0  0
    0.3186   -0.6155    0.0000 C   0  0  0  0  0  0  0  0  0  0  0  0
    1.0331    1.4470    0.0000 C   0  0  0  0  0  0  0  0  0  0  0  0
    1.0331    0.6220    0.0000 C   0  0  0  0  0  0  0  0  0  0  0  0
   -2.5393    4.3345    0.0000 N   0  0  0  0  0  0  0  0  0  0  0  0
    1.7475   -2.2655    0.0000 N   0  0  0  0  0  0  0  0  0  0  0  0
   -3.9682    4.3345    0.0000 N   0  0  0  0  0  0  0  0  0  0  0  0
    0.3186    0.2095    0.0000 N   0  0  0  0  0  0  0  0  0  0  0  0
    0.3186   -2.2655    0.0000 O   0  0  0  0  0  0  0  0  0  0  0  0
   -0.3959   -1.0280    0.0000 O   0  0  0  0  0  0  0  0  0  0  0  0
   -2.5393    1.8595    0.0000 O   0  0  0  0  0  0  0  0  0  0  0  0
    1.7475    0.2095    0.0000 O   0  0  0  0  0  0  0  0  0  0  0  0
    1.7475   -5.5655    0.0000 F   0  0  0  0  0  0  0  0  0  0  0  0
   -1.1104    2.6845    0.0000 F   0  0  0  0  0  0  0  0  0  0  0  0
   -3.9682    2.6845    0.0000 Cl  0  0  0  0  0  0  0  0  0  0  0  0
  1  5  2  0  0  0  0
  1 10  1  0  0  0  0
  2  6  1  0  0  0  0
 10  2  2  0  0  0  0
  3  4  2  0  0  0  0
 11  3  1  0  0  0  0
 12  4  1  0  0  0  0
 14  5  1  0  0  0  0
 14  6  2  0  0  0  0
  7  9  2  0  0  0  0
 13  7  1  0  0  0  0
 11  8  2  0  0  0  0
 15  8  1  0  0  0  0
  9 26  1  0  0  0  0
 10 27  1  0  0  0  0
 11 29  1  0  0  0  0
 12 15  2  0  0  0  0
 12 32  1  0  0  0  0
 13 16  2  0  0  0  0
 13 32  1  0  0  0  0
 14 34  1  0  0  0  0
 15 35  1  0  0  0  0
 16 17  1  0  0  0  0
 16 36  1  0  0  0  0
 17 26  2  0  0  0  0
 17 28  1  0  0  0  0
 18 19  2  0  0  0  0
 18 21  1  0  0  0  0
 19 27  1  0  0  0  0
 20 21  2  0  0  0  0
 20 22  1  0  0  0  0
 20 23  1  0  0  0  0
 21 33  1  0  0  0  0
 22 27  1  0  0  0  0
 22 30  2  0  0  0  0
 23 29  1  0  0  0  0
 23 31  2  0  0  0  0
 24 25  1  0  0  0  0
 25 33  1  0  0  0  0
M  END
> <chembl_id>
CHEMBL460702

$$$$

  SciTegic12131615502D

 42 48  0  0  0  0            999 V2000
    3.7345    1.5436    0.0000 C   0  0
    4.8300    2.8133    0.0000 C   0  0
    3.7345    0.0000    0.0000 C   0  0
    6.1246    2.2656    0.0000 C   0  0
    5.2034   -0.5726    0.0000 C   0  0
    6.1246    0.5726    0.0000 C   0  0
    2.5893   -0.5726    0.0000 C   0  0
    3.5602    0.5726    0.0000 C   0  0
    3.5602    2.2656    0.0000 C   0  0
    5.0291    0.0249    0.0000 C   0  0
    2.1833    1.1556    0.0000 C   0  0
   -1.9600    2.9103    0.0000 C   0  0
   -3.1582    2.0079    0.0000 C   0  0
   -2.9757    0.5191    0.0000 C   0  0
   -1.5951   -0.0674    0.0000 C   0  0
   -0.3969    0.8350    0.0000 C   0  0
   -0.5794    2.3239    0.0000 C   0  0
   -4.1727   -0.3863    0.0000 N   0  0
   -3.6292   -4.8490    0.0000 N   0  0
   -2.4140   -3.9479    0.0000 C   0  0
   -2.5938   -2.4615    0.0000 N   0  0
   -3.9881   -1.8757    0.0000 C   0  0
   -5.1860   -2.7751    0.0000 C   0  0
   -6.5630   -2.1876    0.0000 C   0  0
   -7.7601   -3.0865    0.0000 C   0  0
   -7.5803   -4.5730    0.0000 C   0  0
   -6.2033   -5.1605    0.0000 C   0  0
   -5.0062   -4.2615    0.0000 C   0  0
   -9.1394   -2.4948    0.0000 O   0  0
   -9.3176   -1.0046    0.0000 C   0  0
  -10.6968   -0.4129    0.0000 C   0  0
   -8.7787   -5.4766    0.0000 O   0  0
   -8.6328   -6.6677    0.0000 C   0  0
    0.9857    0.2510    0.0000 N   0  0
  -10.8750    1.0773    0.0000 C   0  0
  -12.2543    1.6690    0.0000 N   0  0
  -12.4345    3.1582    0.0000 C   0  0
  -13.8142    3.7467    0.0000 C   0  0
  -15.0138    2.8461    0.0000 O   0  0
  -14.8336    1.3570    0.0000 C   0  0
  -13.4539    0.7684    0.0000 C   0  0
    2.0353    2.3464    0.0000 O   0  0
  1  2  1  0
  1  3  1  0
  2  4  1  0
  3  5  1  0
  4  6  1  0
  5  6  1  0
  7  8  1  0
  3  7  1  0
  2  9  1  0
  6 10  1  0
 10  8  1  0
  8  9  1  0
 11  8  1  0
 12 13  1  0
 13 14  2  0
 14 15  1  0
 15 16  2  0
 16 17  1  0
 12 17  2  0
 19 20  1  0
 20 21  2  0
 21 22  1  0
 22 23  2  0
 23 24  1  0
 24 25  2  0
 25 26  1  0
 26 27  2  0
 27 28  1  0
 19 28  2  0
 23 28  1  0
 30 31  1  0
 29 30  1  0
 25 29  1  0
 32 33  1  0
 26 32  1  0
 18 22  1  0
 14 18  1  0
 16 34  1  0
 34 11  1  0
 31 35  1  0
 35 36  1  0
 36 37  1  0
 36 41  1  0
 37 38  1  0
 38 39  1  0
 39 40  1  0
 40 41  1  0
 11 42  2  0
M  END
> <chembl_id>
CHEMBL3765789

$$$$

  SciTegic12201615542D

 28 32  0  0  0  0            999 V2000
   -1.0028   -1.5132    0.0000 C   0  0
    0.2917   -0.7475    0.0000 C   0  0
    0.2917    0.7475    0.0000 C   0  0
   -1.0028    1.5132    0.0000 C   0  0
   -2.3155    0.7475    0.0000 C   0  0
   -2.3155   -0.7475    0.0000 C   0  0
    2.5889    0.0182    0.0000 C   0  0
    1.7138   -1.2033    0.0000 N   0  0
    1.7138    1.2033    0.0000 N   0  0
    4.0896    0.0290    0.0000 C   0  0
    4.9234    1.2700    0.0000 C   0  0
    4.7453   -1.3220    0.0000 N   0  0
    6.4199    1.1671    0.0000 N   0  0
    7.0791   -0.1803    0.0000 C   0  0
    6.2418   -1.4248    0.0000 C   0  0
    7.2286   -5.1568    0.0000 N   0  0
    8.5770   -4.4998    0.0000 N   0  0
    8.3688   -3.0143    0.0000 C   0  0
    6.9013   -2.7729    0.0000 C   0  0
    6.1870   -4.0774    0.0000 C   0  0
    6.2216   -9.5371    0.0000 N   0  0
    7.6659   -9.1322    0.0000 C   0  0
    8.0374   -7.6789    0.0000 C   0  0
    6.9674   -6.6347    0.0000 C   0  0
    5.5202   -7.0355    0.0000 C   0  0
    5.1488   -8.4888    0.0000 C   0  0
    5.9245  -10.6998    0.0000 C   0  0
    4.3957    2.3477    0.0000 N   0  0
  1  2  1  0
  2  3  2  0
  3  4  1  0
  4  5  2  0
  5  6  1  0
  1  6  2  0
  7  8  2  0
  7  9  1  0
  2  8  1  0
  3  9  1  0
 10 11  1  0
 10 12  2  0
 11 13  2  0
 13 14  1  0
 14 15  2  0
 12 15  1  0
 16 17  1  0
 17 18  2  0
 18 19  1  0
 19 20  2  0
 16 20  1  0
 21 22  1  0
 22 23  1  0
 23 24  1  0
 24 25  1  0
 25 26  1  0
 21 26  1  0
 21 27  1  0
 16 24  1  0
 15 19  1  0
 11 28  1  0
  7 10  1  0
M  END
> <chembl_id>
CHEMBL3813979

$$$$

  SciTegic01231713372D

 25 28  0  0  0  0            999 V2000
   -2.6111    0.7486    0.0000 C   0  0
   -2.6111   -0.7486    0.0000 C   0  0
   -1.2964   -1.4973    0.0000 C   0  0
   -1.2964    1.4973    0.0000 C   0  0
    0.0000    0.7486    0.0000 C   0  0
    0.0000   -0.7486    0.0000 C   0  0
    1.2964   -1.4973    0.0000 N   0  0
    2.5929   -0.7486    0.0000 C   0  0
    2.5929    0.7486    0.0000 N   0  0
    1.2964    1.4973    0.0000 C   0  0
   -3.9086    1.5029    0.0000 C   0  0
   -4.0476    2.9835    0.0000 C   0  0
   -5.5150    3.2942    0.0000 N   0  0
   -6.2640    1.9946    0.0000 N   0  0
   -5.2594    0.8807    0.0000 C   0  0
    1.2995    2.9981    0.0000 N   0  0
    2.6003    3.7467    0.0000 C   0  0
   -7.4573    1.8682    0.0000 C   0  0
    2.6056    5.2467    0.0000 C   0  0
    3.9072    5.9922    0.0000 C   0  0
    5.2037    5.2377    0.0000 C   0  0
    5.1985    3.7377    0.0000 C   0  0
    3.8969    2.9922    0.0000 C   0  0
    3.9124    7.4930    0.0000 C   0  0
    3.9166    8.6930    0.0000 C   0  0
  1  2  2  0
  2  3  1  0
  3  6  2  0
  5  4  2  0
  4  1  1  0
  5  6  1  0
  6  7  1  0
  7  8  2  0
  8  9  1  0
  9 10  2  0
 10  5  1  0
 11 12  1  0
 12 13  2  0
 13 14  1  0
 14 15  1  0
 15 11  2  0
  1 11  1  0
 10 16  1  0
 16 17  1  0
 14 18  1  0
 17 19  2  0
 19 20  1  0
 20 21  2  0
 21 22  1  0
 22 23  2  0
 23 17  1  0
 20 24  1  0
 24 25  3  0
M  END
> <chembl_id>
CHEMBL3828021

$$$$

  SciTegic01161211262D

 36 39  0  0  0  0            999 V2000
   16.9041  -25.2500    0.0000 S   0  0
   17.7291  -25.2500    0.0000 C   0  0
   17.9859  -24.4659    0.0000 C   0  0
   17.3166  -23.9792    0.0000 C   0  0
   16.6516  -24.4659    0.0000 C   0  0
   15.8669  -24.2113    0.0000 C   0  0
   15.6950  -23.4044    0.0000 O   0  0
   15.2540  -24.7636    0.0000 N   0  0
   18.2133  -25.9180    0.0000 C   0  0
   17.9548  -26.7005    0.0000 C   0  0
   18.6217  -27.1863    0.0000 N   0  0
   19.0356  -25.9172    0.0000 N   0  0
   19.2879  -26.6986    0.0000 C   0  0
   20.0891  -26.8693    0.0000 C   0  0
   20.6388  -26.2597    0.0000 C   0  0
   20.3817  -25.4766    0.0000 C   0  0
   19.5811  -25.3095    0.0000 C   0  0
   17.3154  -23.1542    0.0000 O   0  0
   18.0292  -22.7406    0.0000 C   0  0  2  0  0  0
   18.0280  -21.9156    0.0000 C   0  0
   18.7443  -23.1520    0.0000 C   0  0
   18.7409  -21.5044    0.0000 C   0  0
   18.7400  -20.6801    0.0000 C   0  0
   18.0243  -20.2679    0.0000 C   0  0
   17.3081  -20.6859    0.0000 C   0  0
   17.3125  -21.5088    0.0000 C   0  0
   18.0220  -19.4429    0.0000 C   0  0
   18.7353  -19.0284    0.0000 N   0  0
   19.4509  -19.4388    0.0000 C   0  0
   20.1625  -19.8500    0.0000 C   0  0
   19.8625  -18.7238    0.0000 C   0  0
   19.0420  -20.1554    0.0000 C   0  0
   19.4555  -21.9166    0.0000 O   0  0
   20.1698  -21.5038    0.0000 C   0  0
   20.8844  -21.9161    0.0000 F   0  0
   20.1695  -20.6788    0.0000 F   0  0
 17 12  1  0
  3  4  1  0
  4 18  1  0
  2  9  1  0
 18 19  1  0
  9 10  2  0
 19 20  1  0
  4  5  2  0
 19 21  1  1
  5  1  1  0
 20 22  2  0
 10 11  1  0
 22 23  1  0
 11 13  2  0
 23 24  2  0
 12  9  1  0
 24 25  1  0
  1  2  1  0
 25 26  2  0
 26 20  1  0
  5  6  1  0
 24 27  1  0
 12 13  1  0
 27 28  1  0
 28 29  1  0
 13 14  1  0
 29 30  1  0
  6  7  2  0
 29 31  1  0
 14 15  2  0
 29 32  1  0
  2  3  2  0
 22 33  1  0
 15 16  1  0
 33 34  1  0
  6  8  1  0
 34 35  1  0
 16 17  2  0
 34 36  1  0
M  END
> <chembl_id>
CHEMBL551079

$$$$

  SciTegic12201611502D

 26 29  0  0  0  0            999 V2000
   -2.1332   -2.2973    0.0000 N   0  0
   -3.4277   -1.5498    0.0000 C   0  0
   -3.4277    0.0000    0.0000 N   0  0
   -2.1332    0.6928    0.0000 C   0  0
   -0.8205    0.0000    0.0000 C   0  0
    0.4558    0.6928    0.0000 C   0  0
    1.7503    0.0000    0.0000 C   0  0
    1.7503   -1.5498    0.0000 C   0  0
    0.4558   -2.2973    0.0000 C   0  0
   -0.8205   -1.5498    0.0000 C   0  0
    0.4558    2.1879    0.0000 O   0  0
    3.0631    0.6928    0.0000 O   0  0
    3.0631    2.1879    0.0000 C   0  0
    1.7503    2.9537    0.0000 C   0  0
   -2.1454    2.1947    0.0000 N   0  0
   -3.4508    2.9353    0.0000 C   0  0
   -3.4653    4.4352    0.0000 C   0  0
   -4.7714    5.1728    0.0000 C   0  0
   -6.0632    4.4104    0.0000 C   0  0
   -6.0489    2.9104    0.0000 C   0  0
   -4.7427    2.1729    0.0000 C   0  0
   -4.7889    6.6735    0.0000 O   0  0
   -5.8347    7.2620    0.0000 C   0  0
    3.0410   -2.3153    0.0000 O   0  0
    3.0239   -3.8160    0.0000 C   0  0
    4.0559   -4.4284    0.0000 C   0  0
  1  2  1  0
  2  3  2  0
  3  4  1  0
  4  5  2  0
  5  6  1  0
  6  7  2  0
  7  8  1  0
  8  9  2  0
  9 10  1  0
  1 10  2  0
  5 10  1  0
 12 13  1  0
 13 14  1  0
 11 14  1  0
  6 11  1  0
  7 12  1  0
  4 15  1  0
 16 17  1  0
 17 18  2  0
 18 19  1  0
 19 20  2  0
 20 21  1  0
 16 21  2  0
 22 23  1  0
 18 22  1  0
 15 16  1  0
 25 26  1  0
 24 25  1  0
  8 24  1  0
M  END
> <chembl_id>
CHEMBL3805774

$$$$

  SciTegic12171313052D

 30 33  0  0  0  0            999 V2000
   24.2089   -3.2976    0.0000 C   0  0
   24.2078   -4.1172    0.0000 C   0  0
   24.9158   -4.5261    0.0000 C   0  0
   25.6255   -4.1167    0.0000 C   0  0
   25.6226   -3.2940    0.0000 C   0  0
   24.9140   -2.8888    0.0000 C   0  0
   24.9116   -2.0716    0.0000 N   0  0
   25.6181   -1.6609    0.0000 C   0  0
   26.3285   -2.0718    0.0000 N   0  0
   26.3186   -0.4374    0.0000 C   0  0
   25.6155   -0.8497    0.0000 N   0  0
   27.0325   -0.8437    0.0000 C   0  0
   27.0332   -1.6634    0.0000 C   0  0
   27.7396   -2.0704    0.0000 N   0  0
   28.4498   -1.6621    0.0000 C   0  0
   28.4490   -0.8423    0.0000 C   0  0
   27.7381   -0.4309    0.0000 N   0  0
   27.7408   -2.8848    0.0000 C   0  0
   27.0313   -3.2925    0.0000 C   0  0
   27.0306   -4.1090    0.0000 C   0  0
   27.7386   -4.5187    0.0000 C   0  0
   28.4489   -4.1060    0.0000 C   0  0
   28.4461   -3.2909    0.0000 C   0  0
   29.1573   -2.0710    0.0000 O   0  0
   27.7394   -5.3359    0.0000 N   0  0
   28.4475   -5.7438    0.0000 C   0  0
   28.4482   -6.5610    0.0000 O   0  0
   29.1548   -5.3346    0.0000 C   0  0
   29.8629   -5.7426    0.0000 C   0  0
   24.9156   -5.3433    0.0000 Cl  0  0
  1  2  2  0
  2  3  1  0
  3  4  2  0
  4  5  1  0
  5  6  2  0
  6  1  1  0
  6  7  1  0
  7  8  1  0
  8  9  2  0
  9 13  1  0
 12 10  1  0
 10 11  2  0
 11  8  1  0
 12 13  2  0
 12 17  1  0
 13 14  1  0
 14 15  1  0
 15 16  1  0
 16 17  2  0
 18 19  2  0
 19 20  1  0
 20 21  2  0
 21 22  1  0
 22 23  2  0
 23 18  1  0
 14 18  1  0
 15 24  2  0
 21 25  1  0
 25 26  1  0
 26 27  2  0
 26 28  1  0
 28 29  2  0
  3 30  1  0
M  END
> <chembl_id>
CHEMBL2437457

$$$$

  SciTegic12171313052D

 35 39  0  0  0  0            999 V2000
    7.3038   -9.7774    0.0000 C   0  0
    7.3026  -10.5969    0.0000 C   0  0
    8.0107  -11.0059    0.0000 C   0  0
    8.7203  -10.5964    0.0000 C   0  0
    8.7175   -9.7738    0.0000 C   0  0
    8.0089   -9.3685    0.0000 C   0  0
    8.0064   -8.5513    0.0000 N   0  0
    8.7129   -8.1406    0.0000 C   0  0
    9.4233   -8.5515    0.0000 N   0  0
    9.4134   -6.9171    0.0000 C   0  0
    8.7103   -7.3295    0.0000 N   0  0
   10.1273   -7.3234    0.0000 C   0  0
   10.1281   -8.1432    0.0000 C   0  0
   10.8345   -8.5501    0.0000 N   0  0
   11.5446   -8.1418    0.0000 C   0  0
   11.5438   -7.3221    0.0000 C   0  0
   10.8329   -6.9106    0.0000 N   0  0
   10.8356   -9.3646    0.0000 C   0  0
   10.1261   -9.7723    0.0000 C   0  0
   10.1254  -10.5887    0.0000 C   0  0
   10.8335  -10.9984    0.0000 C   0  0
   11.5437  -10.5857    0.0000 C   0  0
   11.5409   -9.7707    0.0000 C   0  0
   12.2522   -8.5507    0.0000 O   0  0
   10.8342  -11.8156    0.0000 N   0  0
   11.5423  -12.2236    0.0000 C   0  0
   11.5431  -13.0408    0.0000 O   0  0
   12.2497  -11.8143    0.0000 C   0  0
   12.9577  -12.2223    0.0000 C   0  0
    8.0110  -11.8181    0.0000 N   0  0
    7.3014  -12.2253    0.0000 C   0  0
    7.2993  -13.0389    0.0000 C   0  0
    8.0051  -13.4515    0.0000 O   0  0
    8.7147  -13.0443    0.0000 C   0  0
    8.7185  -12.2246    0.0000 C   0  0
  1  2  2  0
  2  3  1  0
  3  4  2  0
  4  5  1  0
  5  6  2  0
  6  1  1  0
  6  7  1  0
  7  8  1  0
  8  9  2  0
  9 13  1  0
 12 10  1  0
 10 11  2  0
 11  8  1  0
 12 13  2  0
 12 17  1  0
 13 14  1  0
 14 15  1  0
 15 16  1  0
 16 17  2  0
 18 19  2  0
 19 20  1  0
 20 21  2  0
 21 22  1  0
 22 23  2  0
 23 18  1  0
 14 18  1  0
 15 24  2  0
 21 25  1  0
 25 26  1  0
 26 27  2  0
 26 28  1  0
 28 29  2  0
 30 31  1  0
 30 35  1  0
 31 32  1  0
 32 33  1  0
 33 34  1  0
 34 35  1  0
  3 30  1  0
M  END
> <chembl_id>
CHEMBL2437459

$$$$

  SciTegic05061409512D

 24 26  0  0  0  0            999 V2000
   13.4627   -5.1122    0.0000 N   0  0
   14.1724   -4.7027    0.0000 C   0  0
   14.1696   -3.8801    0.0000 N   0  0
   13.4610   -3.4748    0.0000 C   0  0
   12.7547   -4.7032    0.0000 C   0  0
   12.7570   -3.8813    0.0000 C   0  0
   12.0475   -3.4702    0.0000 C   0  0
   11.3352   -3.8798    0.0000 C   0  0
   11.3369   -4.7049    0.0000 C   0  0
   12.0470   -5.1123    0.0000 C   0  0
   13.4593   -2.6576    0.0000 N   0  0
   10.6274   -3.4714    0.0000 N   0  0
    9.9198   -3.8801    0.0000 C   0  0
    9.2120   -3.4716    0.0000 C   0  0
    9.9199   -4.6973    0.0000 O   0  0
    8.5044   -3.8803    0.0000 C   0  0
   14.1661   -2.2476    0.0000 C   0  0
   14.8750   -2.6597    0.0000 C   0  0
   15.5814   -2.2503    0.0000 C   0  0
   15.5801   -1.4323    0.0000 C   0  0
   14.8666   -1.0253    0.0000 C   0  0
   14.1631   -1.4371    0.0000 C   0  0
   16.2864   -1.0213    0.0000 Br  0  0
   13.4535   -1.0319    0.0000 F   0  0
  5  1  1  0
  1  2  2  0
  2  3  1  0
  3  4  2  0
  4  6  1  0
  5  6  1  0
  6  7  2  0
  7  8  1  0
  8  9  2  0
  9 10  1  0
 10  5  2  0
  4 11  1  0
  8 12  1  0
 12 13  1  0
 13 14  1  0
 13 15  2  0
 14 16  2  0
 11 17  1  0
 17 18  2  0
 18 19  1  0
 19 20  2  0
 20 21  1  0
 21 22  2  0
 22 17  1  0
 20 23  1  0
 22 24  1  0
M  END
> <chembl_id>
CHEMBL3132872

$$$$

  SciTegic09291413392D

 47 52  0  0  0  0            999 V2000
   13.0805   -5.5407    0.0000 C   0  0
   13.0805   -4.7157    0.0000 C   0  0
   13.7950   -4.3032    0.0000 C   0  0
   14.5095   -4.7157    0.0000 C   0  0
   14.5095   -5.5407    0.0000 C   0  0
   13.7950   -5.9532    0.0000 C   0  0
   12.3661   -5.9532    0.0000 S   0  0
   11.6516   -6.3657    0.0000 O   0  0
   12.7786   -6.6677    0.0000 O   0  0
   11.9536   -5.2387    0.0000 N   0  0
   15.9776   -5.6177    0.0000 C   0  0
   15.2239   -5.9532    0.0000 C   0  0
   15.3102   -6.7737    0.0000 C   0  0
   16.1172   -6.9452    0.0000 C   0  0
   16.5297   -6.2308    0.0000 S   0  0
   11.1286   -5.2387    0.0000 C   0  0
   10.7161   -5.9532    0.0000 C   0  0
    9.8911   -5.9532    0.0000 C   0  0
    9.4786   -5.2387    0.0000 C   0  0
    9.8911   -4.5243    0.0000 C   0  0
   10.7161   -4.5243    0.0000 C   0  0
    8.6536   -5.2387    0.0000 O   0  0
    7.4161   -3.0953    0.0000 N   0  0
    8.2411   -3.0953    0.0000 C   0  0
    8.6536   -3.8098    0.0000 C   0  0
    8.2411   -4.5243    0.0000 C   0  0
    7.4161   -4.5243    0.0000 C   0  0
    7.0036   -5.2388    0.0000 C   0  0
    6.1786   -5.2388    0.0000 C   0  0
    5.7661   -4.5243    0.0000 C   0  0
    6.1786   -3.8098    0.0000 C   0  0
    7.0036   -3.8098    0.0000 C   0  0
    4.9411   -4.5243    0.0000 O   0  0
    4.5286   -3.8098    0.0000 C   0  0
    3.7036   -3.8098    0.0000 C   0  0
    3.2911   -3.0953    0.0000 C   0  0
    2.4661   -3.0953    0.0000 N   0  0
    2.0536   -3.8098    0.0000 C   0  0
    1.2286   -3.8098    0.0000 C   0  0
    0.8161   -3.0953    0.0000 N   0  0
    1.2286   -2.3809    0.0000 C   0  0
    2.0536   -2.3809    0.0000 C   0  0
   -0.0089   -3.0953    0.0000 C   0  0
    5.7661   -5.9532    0.0000 O   0  0
    4.9411   -5.9532    0.0000 C   0  0
    9.4786   -6.6677    0.0000 F   0  0
   12.3661   -4.3032    0.0000 F   0  0
  1  2  1  0
  2  3  2  0
  3  4  1  0
  4  5  2  0
  5  6  1  0
  1  6  2  0
  7  8  2  0
  7  9  2  0
  7 10  1  0
  1  7  1  0
 11 12  2  0
 12 13  1  0
 13 14  2  0
 14 15  1  0
 11 15  1  0
  5 12  1  0
 16 17  1  0
 17 18  2  0
 18 19  1  0
 19 20  2  0
 20 21  1  0
 16 21  2  0
 23 24  2  0
 24 25  1  0
 25 26  2  0
 26 27  1  0
 27 28  2  0
 28 29  1  0
 29 30  2  0
 30 31  1  0
 31 32  2  0
 23 32  1  0
 27 32  1  0
 34 35  1  0
 35 36  1  0
 33 34  1  0
 37 38  1  0
 38 39  1  0
 39 40  1  0
 40 41  1  0
 41 42  1  0
 37 42  1  0
 40 43  1  0
 36 37  1  0
 30 33  1  0
 44 45  1  0
 29 44  1  0
 22 26  1  0
 19 22  1  0
 18 46  1  0
 10 16  1  0
  2 47  1  0
M  END
> <chembl_id>
CHEMBL3263965

$$$$

  SciTegic12161615052D

 19 20  0  0  0  0            999 V2000
    1.2990   -0.7500    0.0000 C   0  0
    1.2990    0.7500    0.0000 C   0  0
    0.0000    1.5000    0.0000 C   0  0
   -1.2990    0.7500    0.0000 C   0  0
   -1.2990   -0.7500    0.0000 C   0  0
    0.0000   -1.5000    0.0000 N   0  0
    2.5972    1.5031    0.0000 C   0  0
    2.5955    2.7031    0.0000 O   0  0
    3.6375    0.9049    0.0000 N   0  0
    2.3383   -1.3500    0.0000 O   0  0
   -0.0031    3.0008    0.0000 N   0  0
   -1.3039    3.7494    0.0000 C   0  0
   -1.3092    5.2494    0.0000 C   0  0
   -2.6108    5.9949    0.0000 C   0  0
   -3.9073    5.2404    0.0000 C   0  0
   -3.9021    3.7404    0.0000 C   0  0
   -2.6005    2.9949    0.0000 C   0  0
   -0.0136    6.0070    0.0000 O   0  0
   -0.0195    7.2070    0.0000 C   0  0
  1  2  1  0
  2  3  2  0
  3  4  1  0
  4  5  2  0
  5  6  1  0
  1  6  1  0
  7  8  2  0
  7  9  1  0
  2  7  1  0
  1 10  2  0
  3 11  1  0
 11 12  1  0
 12 13  2  0
 13 14  1  0
 14 15  2  0
 15 16  1  0
 16 17  2  0
 17 12  1  0
 13 18  1  0
 18 19  1  0
M  END
> <chembl_id>
CHEMBL3781934

$$$$

  SciTegic09291413392D

 48 53  0  0  0  0            999 V2000
    9.8398   -9.2984    0.0000 N   0  0
   10.0106   -8.4958    0.0000 N   0  0
   10.8251   -8.4118    0.0000 C   0  0
   11.1595   -9.1591    0.0000 C   0  0
   10.5489   -9.7111    0.0000 C   0  0
   11.9579   -9.3299    0.0000 C   0  0
   12.1710  -10.1214    0.0000 O   0  0
   12.5404   -8.7515    0.0000 N   0  0
    9.4606   -7.8894    0.0000 C   0  0
    8.6618   -8.0601    0.0000 C   0  0
    8.1118   -7.4495    0.0000 C   0  0
    8.3689   -6.6682    0.0000 C   0  0
    9.1677   -6.4974    0.0000 C   0  0
    9.7177   -7.1080    0.0000 C   0  0
   11.2337   -7.7027    0.0000 O   0  0
   10.6329  -10.5256    0.0000 C   0  0
    9.0962   -9.6328    0.0000 C   0  0
   13.3319   -8.9647    0.0000 C   0  0
   13.9102   -8.3863    0.0000 C   0  0
   14.7018   -8.5953    0.0000 C   0  0
   14.9149   -9.3868    0.0000 C   0  0
   14.3365   -9.9693    0.0000 C   0  0
   13.5450   -9.7562    0.0000 C   0  0
   15.7064   -9.6000    0.0000 O   0  0
   17.4456   -7.8608    0.0000 N   0  0
   16.6541   -7.6477    0.0000 C   0  0
   16.0757   -8.2260    0.0000 C   0  0
   16.2889   -9.0216    0.0000 C   0  0
   17.0804   -9.2348    0.0000 C   0  0
   17.2894  -10.0263    0.0000 C   0  0
   18.0851  -10.2395    0.0000 C   0  0
   18.6634   -9.6570    0.0000 C   0  0
   18.4503   -8.8655    0.0000 C   0  0
   17.6588   -8.6523    0.0000 C   0  0
   19.4549   -9.8701    0.0000 O   0  0
   20.0374   -9.2876    0.0000 C   0  0
   20.8289   -9.5008    0.0000 C   0  0
   21.4073   -8.9224    0.0000 C   0  0
   22.1988   -9.1356    0.0000 N   0  0
   22.4120   -9.9271    0.0000 C   0  0
   23.2035  -10.1403    0.0000 C   0  0
   23.7818   -9.5578    0.0000 N   0  0
   23.5687   -8.7663    0.0000 C   0  0
   22.7772   -8.5531    0.0000 C   0  0
   24.5733   -9.7709    0.0000 C   0  0
   18.2941  -11.0310    0.0000 O   0  0
   19.0856  -11.2400    0.0000 C   0  0
   15.2842   -8.0170    0.0000 F   0  0
  1  2  1  0
  2  3  1  0
  3  4  1  0
  4  5  2  0
  1  5  1  0
  6  7  2  0
  6  8  1  0
  4  6  1  0
  9 10  1  0
 10 11  2  0
 11 12  1  0
 12 13  2  0
 13 14  1  0
  9 14  2  0
  2  9  1  0
  3 15  2  0
  5 16  1  0
  1 17  1  0
 18 19  1  0
 19 20  2  0
 20 21  1  0
 21 22  2  0
 22 23  1  0
 18 23  2  0
 25 26  2  0
 26 27  1  0
 27 28  2  0
 28 29  1  0
 29 30  2  0
 30 31  1  0
 31 32  2  0
 32 33  1  0
 33 34  2  0
 25 34  1  0
 29 34  1  0
 36 37  1  0
 37 38  1  0
 35 36  1  0
 39 40  1  0
 40 41  1  0
 41 42  1  0
 42 43  1  0
 43 44  1  0
 39 44  1  0
 42 45  1  0
 38 39  1  0
 32 35  1  0
 46 47  1  0
 31 46  1  0
 24 28  1  0
 21 24  1  0
 20 48  1  0
  8 18  1  0
M  END
> <chembl_id>
CHEMBL3263959

$$$$

  SciTegic10311316212D

 47 52  0  0  0  0            999 V2000
   34.3014   -8.8158    0.0000 O   0  0
   34.0909   -9.6082    0.0000 S   0  0
   34.8824   -9.3943    0.0000 O   0  0
   25.6080  -12.3156    0.0000 C   0  0
   25.6069  -13.1351    0.0000 C   0  0
   26.3149  -13.5441    0.0000 C   0  0
   27.0246  -13.1347    0.0000 C   0  0
   27.0218  -12.3120    0.0000 C   0  0
   26.3131  -11.9068    0.0000 C   0  0
   24.8964  -11.9028    0.0000 N   0  0
   24.8982  -11.0847    0.0000 C   0  0
   24.1945  -10.6763    0.0000 C   0  0
   23.4845  -11.0816    0.0000 N   0  0
   23.4827  -11.8997    0.0000 C   0  0
   24.1909  -12.3126    0.0000 C   0  0
   26.3147  -14.3613    0.0000 O   0  0
   25.6069  -14.7697    0.0000 C   0  0
   27.7329  -13.5422    0.0000 N   0  0
   28.4400  -13.1325    0.0000 C   0  0
   29.1450  -13.5404    0.0000 N   0  0
   29.8516  -13.1314    0.0000 C   0  0
   29.8508  -12.3133    0.0000 C   0  0
   29.1375  -11.9060    0.0000 C   0  0
   28.4338  -12.3173    0.0000 N   0  0
   29.1333  -11.0888    0.0000 O   0  0
   29.8389  -10.6766    0.0000 C   0  0
   30.5456  -11.0819    0.0000 C   0  0
   31.2508  -10.6704    0.0000 C   0  0
   31.2470   -9.8523    0.0000 C   0  0
   30.5323   -9.4475    0.0000 C   0  0
   29.8301   -9.8614    0.0000 C   0  0
   30.5573  -11.9026    0.0000 Cl  0  0
   22.7782  -10.6705    0.0000 C   0  0
   31.9603  -11.0757    0.0000 C   0  0
   32.6662  -10.6638    0.0000 O   0  0
   32.6624   -9.8467    0.0000 C   0  0
   33.3159   -9.3628    0.0000 C   0  0
   33.0598   -8.5868    0.0000 N   0  3
   32.2426   -8.5906    0.0000 O   0  0
   31.9938   -9.3689    0.0000 N   0  0
   33.5371   -7.9235    0.0000 O   0  5
   34.2702  -10.4082    0.0000 C   0  0
   33.6653  -10.9542    0.0000 C   0  0
   33.8401  -11.7517    0.0000 C   0  0
   34.6197  -11.9996    0.0000 C   0  0
   35.2246  -11.4439    0.0000 C   0  0
   35.0467  -10.6485    0.0000 C   0  0
  2  1  2  0
  3  2  2  0
  4  5  2  0
  5  6  1  0
  6  7  2  0
  7  8  1  0
  8  9  2  0
  9  4  1  0
 10 11  1  0
 10 15  1  0
 11 12  1  0
 12 13  1  0
 13 14  1  0
 14 15  1  0
  4 10  1  0
  6 16  1  0
 16 17  1  0
  7 18  1  0
 18 19  1  0
 19 20  2  0
 20 21  1  0
 21 22  2  0
 22 23  1  0
 23 24  2  0
 24 19  1  0
 23 25  1  0
 25 26  1  0
 26 27  2  0
 27 28  1  0
 28 29  2  0
 29 30  1  0
 30 31  2  0
 31 26  1  0
 22 32  1  0
 13 33  1  0
 28 34  1  0
 34 35  1  0
 35 36  1  0
 36 37  1  0
 37 38  2  0
 38 39  1  0
 39 40  1  0
 40 36  2  0
 38 41  1  0
 37  2  1  0
  2 42  1  0
 42 43  2  0
 43 44  1  0
 44 45  2  0
 45 46  1  0
 46 47  2  0
 47 42  1  0
M  CHG  2  38   1  41  -1
M  END
> <chembl_id>
CHEMBL2408828

$$$$

  SciTegic12171313022D

 34 37  0  0  0  0            999 V2000
    2.1860  -21.5069    0.0000 C   0  0
    2.1849  -22.3265    0.0000 C   0  0
    2.8929  -22.7355    0.0000 N   0  0
    3.6026  -22.3260    0.0000 C   0  0
    3.5997  -21.5034    0.0000 N   0  0
    2.8911  -21.0981    0.0000 C   0  0
    2.8892  -20.2810    0.0000 C   0  0
    3.5489  -19.7987    0.0000 C   0  0
    3.2940  -19.0222    0.0000 N   0  0
    2.2267  -19.8026    0.0000 C   0  0
    2.4796  -19.0255    0.0000 N   0  0
    1.9336  -18.4200    0.0000 C   0  0
    1.1346  -18.5903    0.0000 C   0  0
    0.8845  -19.3716    0.0000 C   0  0
    1.4322  -19.9738    0.0000 C   0  0
    4.3109  -22.7335    0.0000 N   0  0
    5.0180  -22.3238    0.0000 C   0  0
    5.7230  -22.7317    0.0000 C   0  0
    6.4296  -22.3227    0.0000 C   0  0
    5.0118  -21.5087    0.0000 C   0  0
    5.7231  -23.5489    0.0000 O   0  0
    5.0154  -23.9576    0.0000 C   0  0
    5.7116  -21.0965    0.0000 C   0  0
    6.4249  -21.5054    0.0000 C   0  0
    5.7068  -20.2793    0.0000 N   0  0
    6.4121  -19.8666    0.0000 C   0  0
    6.4073  -19.0494    0.0000 C   0  0
    7.1222  -20.2710    0.0000 O   0  0
    7.1126  -18.6367    0.0000 C   0  0
    7.1078  -17.8195    0.0000 C   0  0
    7.8131  -17.4068    0.0000 N   0  0
    7.8083  -16.5933    0.0000 C   0  0
    8.5232  -17.8112    0.0000 C   0  0
    1.4782  -21.0985    0.0000 C   0  0
  1  2  2  0
  2  3  1  0
  3  4  2  0
  4  5  1  0
  5  6  2  0
  6  1  1  0
  7  8  1  0
  8  9  2  0
  9 11  1  0
 10  7  2  0
  6  7  1  0
 10 11  1  0
 11 12  1  0
 12 13  2  0
 13 14  1  0
 14 15  2  0
 15 10  1  0
  4 16  1  0
 16 17  1  0
 17 18  2  0
 18 19  1  0
 19 24  2  0
 23 20  2  0
 20 17  1  0
 18 21  1  0
 21 22  1  0
 23 24  1  0
 23 25  1  0
 25 26  1  0
 26 27  1  0
 26 28  2  0
 27 29  2  0
 29 30  1  0
 30 31  1  0
 31 32  1  0
 31 33  1  0
  1 34  1  0
M  END
> <chembl_id>
CHEMBL2426377

$$$$

  SciTegic12091611192D

 30 33  0  0  0  0            999 V2000
   -3.6217    1.4865    0.0000 N   0  0
   -7.5133    0.6990    0.0000 C   0  0
   -6.2219    1.4621    0.0000 N   0  0
   -4.9153    0.7255    0.0000 C   0  0
   -4.9001   -0.7745    0.0000 C   0  0
   -6.1914   -1.5377    0.0000 C   0  0
   -7.4980   -0.8010    0.0000 N   0  0
   -8.8205    1.4361    0.0000 N   0  0
   -8.8383    2.9360    0.0000 C   0  0
  -10.1461    3.6707    0.0000 C   0  0
  -11.4362    2.9055    0.0000 C   0  0
  -11.4185    1.4056    0.0000 C   0  0
  -10.1108    0.6709    0.0000 C   0  0
   -1.0028   -1.5132    0.0000 C   0  0
    0.2917   -0.7475    0.0000 C   0  0
    0.2917    0.7475    0.0000 C   0  0
   -1.0028    1.5132    0.0000 C   0  0
   -2.3155    0.7475    0.0000 C   0  0
   -2.3155   -0.7475    0.0000 N   0  0
    2.5889    0.0182    0.0000 C   0  0
    1.7138   -1.2033    0.0000 N   0  0
    1.7138    1.2033    0.0000 N   0  0
    3.7889    0.0269    0.0000 C   0  0
    2.1812    2.6271    0.0000 C   0  0
    3.3556    2.8737    0.0000 C   0  0
    1.3808    3.5211    0.0000 C   0  0
  -12.7447    3.6405    0.0000 S   0  0
  -13.7766    3.0280    0.0000 C   0  0
  -12.7596    4.8404    0.0000 O   0  0
  -13.7912    4.2278    0.0000 O   0  0
  2  3  1  0
  3  4  2  0
  4  5  1  0
  5  6  2  0
  6  7  1  0
  2  7  2  0
  8  9  1  0
  9 10  1  0
 10 11  1  0
 11 12  1  0
 12 13  1  0
  8 13  1  0
  2  8  1  0
  1  4  1  0
 14 15  1  0
 15 16  2  0
 16 17  1  0
 17 18  2  0
 18 19  1  0
 14 19  2  0
 20 21  2  0
 20 22  1  0
 15 21  1  0
 16 22  1  0
  1 18  1  0
 20 23  1  0
 22 24  1  0
 24 25  1  0
 24 26  1  0
 11 27  1  0
 27 28  1  0
 27 29  2  0
 27 30  2  0
M  END
> <chembl_id>
CHEMBL3735045

$$$$

  SciTegic04091414352D

 35 38  0  0  0  0            999 V2000
    8.5147   -6.0508    0.0000 N   0  0
    9.2244   -6.4569    0.0000 C   0  0
    9.2276   -7.2745    0.0000 O   0  0
    9.9310   -6.0453    0.0000 N   0  0
   10.6406   -6.4514    0.0000 C   0  0
   11.3472   -6.0399    0.0000 C   0  0
   12.0569   -6.4460    0.0000 C   0  0
   12.7634   -6.0345    0.0000 N   0  0
   12.7603   -5.2168    0.0000 C   0  0
   13.4731   -6.4406    0.0000 C   0  0
    5.6885   -7.6969    0.0000 N   0  0
    4.9789   -7.2908    0.0000 C   0  0
    4.9757   -6.4732    0.0000 N   0  0
    5.6823   -6.0616    0.0000 C   0  0
    6.3920   -6.4677    0.0000 C   0  0
    7.0985   -6.0562    0.0000 C   0  0
    7.8082   -6.4623    0.0000 C   0  0
    7.8113   -7.2800    0.0000 C   0  0
    7.1048   -7.6915    0.0000 C   0  0
    6.3951   -7.2854    0.0000 C   0  0
    8.5210   -7.6861    0.0000 O   0  0
    8.1201   -9.7636    0.0000 O   0  0
    7.8645   -8.9869    0.0000 C   0  0
    8.5241   -8.5037    0.0000 C   0  0  2  0  0  0
    9.1875   -8.9818    0.0000 C   0  0
    8.9378   -9.7604    0.0000 C   0  0
    5.6791   -5.2440    0.0000 N   0  0
    4.9695   -4.8379    0.0000 C   0  0
    4.2629   -5.2494    0.0000 C   0  0
    3.5532   -4.8433    0.0000 C   0  0
    3.5501   -4.0256    0.0000 C   0  0
    4.2566   -3.6141    0.0000 C   0  0
    4.9663   -4.0202    0.0000 C   0  0
    2.8404   -3.6195    0.0000 F   0  0
    2.8467   -5.2548    0.0000 Cl  0  0
  1  2  1  0
  2  3  2  0
  2  4  1  0
  5  6  1  0
  6  7  1  0
  8  9  1  0
  8 10  1  0
  7  8  1  0
  4  5  1  0
 11 12  1  0
 12 13  2  0
 13 14  1  0
 14 15  2  0
 15 16  1  0
 16 17  2  0
 17 18  1  0
 18 19  2  0
 19 20  1  0
 11 20  2  0
 15 20  1  0
 22 23  1  0
 23 24  1  0
 24 25  1  0
 25 26  1  0
 22 26  1  0
 24 21  1  1
 18 21  1  0
 28 29  1  0
 29 30  2  0
 30 31  1  0
 31 32  2  0
 32 33  1  0
 28 33  2  0
 31 34  1  0
 30 35  1  0
 27 28  1  0
 14 27  1  0
  1 17  1  0
M  END
> <chembl_id>
CHEMBL3092313

$$$$

  SciTegic04201616412D

 29 32  0  0  0  0            999 V2000
    0.0000    0.7486    0.0000 C   0  0
   -1.2964    1.4973    0.0000 C   0  0
    0.0000   -0.7486    0.0000 C   0  0
    1.2964    1.4973    0.0000 C   0  0
   -2.6111    0.7486    0.0000 N   0  0
    1.2964   -1.4973    0.0000 C   0  0
   -1.2907    2.9981    0.0000 N   0  0
    2.5929    0.7486    0.0000 C   0  0
    2.5929   -0.7486    0.0000 C   0  0
   -5.1852    3.7608    0.0000 C   0  0
   -1.2964   -1.4973    0.0000 N   0  0
   -3.8880    3.0076    0.0000 C   0  0
   -2.6111   -0.7486    0.0000 C   0  0
   -2.5870    3.7544    0.0000 C   0  0
   -5.1815    5.2608    0.0000 C   0  0
   -3.8807    6.0076    0.0000 C   0  0
   -2.5835    5.2544    0.0000 C   0  0
    3.8911   -1.5017    0.0000 O   0  0
   -3.8777    7.2076    0.0000 Cl  0  0
   -1.5428    5.8519    0.0000 F   0  0
    3.8911    1.5017    0.0000 C   0  0
    4.9314    0.9035    0.0000 O   0  0
    3.8890    3.0026    0.0000 N   0  0
    3.8894   -2.7017    0.0000 C   0  0
    5.1854    3.7571    0.0000 C   0  0
    5.1802    5.2571    0.0000 C   0  0
    3.8786    6.0026    0.0000 O   0  0
    2.5821    5.2482    0.0000 C   0  0
    2.5873    3.7482    0.0000 C   0  0
  2  1  1  0
  3  1  1  0
  4  1  2  0
  5  2  2  0
  6  3  2  0
  7  2  1  0
  8  4  1  0
  9  8  2  0
 10 12  1  0
 11  3  1  0
 12 14  2  0
 13 11  2  0
 14  7  1  0
 15 16  1  0
 16 17  2  0
 17 14  1  0
 18  9  1  0
  6  9  1  0
 13  5  1  0
 10 15  2  0
 16 19  1  0
 17 20  1  0
  8 21  1  0
 21 22  2  0
 21 23  1  0
 18 24  1  0
 23 25  1  0
 23 29  1  0
 25 26  1  0
 26 27  1  0
 27 28  1  0
 28 29  1  0
M  END
> <chembl_id>
CHEMBL3623280

$$$$

          11280715532D 1   1.00000     0.00000     0

 33 34  0     0  0            999 V2000
   10.3429  -26.7516    0.0000 C   0  0  0  0  0  0           0  0  0
   11.0646  -26.3520    0.0000 C   0  0  0  0  0  0           0  0  0
   11.7716  -26.7773    0.0000 C   0  0  0  0  0  0           0  0  0
   12.4934  -26.3776    0.0000 C   0  0  0  0  0  0           0  0  0
   13.2004  -26.8029    0.0000 C   0  0  0  0  0  0           0  0  0
   12.5081  -25.5527    0.0000 O   0  0  0  0  0  0           0  0  0
   13.9221  -26.4033    0.0000 C   0  0  0  0  0  0           0  0  0
   14.6290  -26.8285    0.0000 C   0  0  0  0  0  0           0  0  0
   15.3507  -26.4290    0.0000 C   0  0  0  0  0  0           0  0  0
   16.0576  -26.8545    0.0000 C   0  0  0  0  0  0           0  0  0
   13.9148  -25.5746    0.0000 O   0  0  0  0  0  0           0  0  0
    9.6386  -26.3263    0.0000 C   0  0  0  0  0  0           0  0  0
    8.9174  -26.7252    0.0000 C   0  0  0  0  0  0           0  0  0
    8.9021  -27.5510    0.0000 C   0  0  0  0  0  0           0  0  0
    9.6141  -27.9761    0.0000 C   0  0  0  0  0  0           0  0  0
   10.3324  -27.5747    0.0000 C   0  0  0  0  0  0           0  0  0
   16.0376  -27.6793    0.0000 C   0  0  0  0  0  0           0  0  0
   16.7436  -28.1047    0.0000 C   0  0  0  0  0  0           0  0  0
   17.4665  -27.7052    0.0000 C   0  0  0  0  0  0           0  0  0
   17.4790  -26.8760    0.0000 C   0  0  0  0  0  0           0  0  0
   16.7722  -26.4544    0.0000 C   0  0  0  0  0  0           0  0  0
    8.1809  -27.9515    0.0000 O   0  0  0  0  0  0           0  0  0
    7.4734  -27.5272    0.0000 C   0  0  0  0  0  0           0  0  0
   18.1739  -28.1298    0.0000 O   0  0  0  0  0  0           0  0  0
   18.1600  -28.9546    0.0000 C   0  0  0  0  0  0           0  0  0
    8.2106  -26.2996    0.0000 O   0  0  0  0  0  0           0  0  0
    8.2259  -25.4748    0.0000 C   0  0  0  0  0  0           0  0  0
   18.1994  -26.4741    0.0000 O   0  0  0  0  0  0           0  0  0
   18.9077  -26.8970    0.0000 C   0  0  0  0  0  0           0  0  0
   11.0413  -27.9968    0.0000 O   0  0  0  0  0  0           0  0  0
   11.0302  -28.8218    0.0000 C   0  0  0  0  0  0           0  0  0
   15.3144  -28.0764    0.0000 O   0  0  0  0  0  0           0  0  0
   14.6090  -27.6487    0.0000 C   0  0  0  0  0  0           0  0  0
 10 17  2  0     0  0
  8  9  2  0     0  0
 17 18  1  0     0  0
  4  5  1  0     0  0
 18 19  2  0     0  0
  9 10  1  0     0  0
 19 20  1  0     0  0
  2  3  2  0     0  0
 20 21  2  0     0  0
 21 10  1  0     0  0
  7 11  1  0     0  0
 14 22  1  0     0  0
  4  6  2  0     0  0
 22 23  1  0     0  0
  1 12  2  0     0  0
 19 24  1  0     0  0
  1  2  1  0     0  0
 24 25  1  0     0  0
 12 13  1  0     0  0
 13 26  1  0     0  0
  5  7  2  0     0  0
 26 27  1  0     0  0
 13 14  2  0     0  0
 20 28  1  0     0  0
  3  4  1  0     0  0
 28 29  1  0     0  0
 14 15  1  0     0  0
 16 30  1  0     0  0
  7  8  1  0     0  0
 30 31  1  0     0  0
 15 16  2  0     0  0
 17 32  1  0     0  0
 16  1  1  0     0  0
 32 33  1  0     0  0
M  END
> <chembl_id>
CHEMBL379426

$$$$

  SciTegic10311316282D

 34 38  0  0  0  0            999 V2000
    4.0280  -15.3297    0.0000 N   0  0
    4.0281  -16.1571    0.0000 C   0  0
    4.7515  -16.5690    0.0000 N   0  0
    4.7476  -14.9160    0.0000 C   0  0
    5.4635  -15.3243    0.0000 C   0  0
    5.4648  -16.1507    0.0000 C   0  0
    6.2512  -16.4049    0.0000 N   0  0
    6.7360  -15.7355    0.0000 C   0  0
    6.2492  -15.0677    0.0000 C   0  0
    6.5115  -17.1911    0.0000 C   0  0
    6.0277  -17.8594    0.0000 C   0  0
    6.5136  -18.5260    0.0000 C   0  0
    7.2979  -18.2699    0.0000 C   0  0
    7.2965  -17.4449    0.0000 C   0  0
    4.7441  -14.0910    0.0000 N   0  0
    6.5029  -14.2827    0.0000 C   0  0
    7.3096  -14.1099    0.0000 C   0  0
    5.9499  -13.6704    0.0000 O   0  0
    7.8567  -14.7235    0.0000 C   0  0
    8.6627  -14.5512    0.0000 C   0  0
    8.9171  -13.7655    0.0000 C   0  0
    8.3593  -13.1519    0.0000 C   0  0
    7.5554  -13.3273    0.0000 C   0  0
    8.6103  -12.3660    0.0000 N   0  0
    9.4164  -12.1903    0.0000 C   0  0
    9.6673  -11.4044    0.0000 N   0  0
    9.9715  -12.8006    0.0000 O   0  0
   10.4734  -11.2288    0.0000 C   0  0
   11.0261  -11.8399    0.0000 C   0  0
   11.8315  -11.6648    0.0000 C   0  0
   12.0831  -10.8782    0.0000 C   0  0
   11.5232  -10.2666    0.0000 C   0  0
   10.7198  -10.4448    0.0000 C   0  0
   12.8890  -10.7015    0.0000 Cl  0  0
  1  2  2  0
  2  3  1  0
  3  6  2  0
  5  4  2  0
  4  1  1  0
  5  6  1  0
  6  7  1  0
  7  8  1  0
  8  9  2  0
  9  5  1  0
 10 11  1  0
 11 12  1  0
 12 13  1  0
 13 14  1  0
 14 10  1  0
  7 10  1  0
  4 15  1  0
  9 16  1  0
 16 17  1  0
 16 18  2  0
 17 19  2  0
 19 20  1  0
 20 21  2  0
 21 22  1  0
 22 23  2  0
 23 17  1  0
 22 24  1  0
 24 25  1  0
 25 26  1  0
 25 27  2  0
 26 28  1  0
 28 29  2  0
 29 30  1  0
 30 31  2  0
 31 32  1  0
 32 33  2  0
 33 28  1  0
 31 34  1  0
M  END
> <chembl_id>
CHEMBL2386998

$$$$

  SciTegic12201611512D

 29 32  0  0  0  0            999 V2000
   -2.1332   -2.2973    0.0000 N   0  0
   -3.4277   -1.5498    0.0000 C   0  0
   -3.4277    0.0000    0.0000 N   0  0
   -2.1332    0.6928    0.0000 C   0  0
   -0.8205    0.0000    0.0000 C   0  0
    0.4558    0.6928    0.0000 C   0  0
    1.7503    0.0000    0.0000 C   0  0
    1.7503   -1.5498    0.0000 C   0  0
    0.4558   -2.2973    0.0000 C   0  0
   -0.8205   -1.5498    0.0000 C   0  0
    0.4558    2.1879    0.0000 O   0  0
    3.0631    0.6928    0.0000 O   0  0
    3.0631    2.1879    0.0000 C   0  0
    1.7503    2.9537    0.0000 C   0  0
   -2.1454    2.1947    0.0000 N   0  0
    3.0410   -2.3153    0.0000 O   0  0
    3.0239   -3.8160    0.0000 C   0  0
    4.0559   -4.4284    0.0000 C   0  0
    1.9778   -4.4039    0.0000 C   0  0
   -3.4508    2.9353    0.0000 C   0  0
   -3.4653    4.4352    0.0000 C   0  0
   -4.7714    5.1728    0.0000 C   0  0
   -6.0632    4.4104    0.0000 C   0  0
   -6.0489    2.9104    0.0000 C   0  0
   -4.7427    2.1729    0.0000 C   0  0
   -4.7827    6.6736    0.0000 N   0  3
   -3.7484    7.2820    0.0000 O   0  0
   -5.8266    7.2654    0.0000 O   0  5
   -7.1082    5.0004    0.0000 Cl  0  0
  1  2  1  0
  2  3  2  0
  3  4  1  0
  4  5  2  0
  5  6  1  0
  6  7  2  0
  7  8  1  0
  8  9  2  0
  9 10  1  0
  1 10  2  0
  5 10  1  0
 12 13  1  0
 13 14  1  0
 11 14  1  0
  6 11  1  0
  7 12  1  0
  4 15  1  0
 17 18  1  0
 17 19  1  0
 16 17  1  0
  8 16  1  0
 20 21  1  0
 21 22  2  0
 22 23  1  0
 23 24  2  0
 24 25  1  0
 20 25  2  0
 26 27  2  0
 26 28  1  0
 22 26  1  0
 23 29  1  0
 15 20  1  0
M  CHG  2  26   1  28  -1
M  END
> <chembl_id>
CHEMBL3805177

$$$$

  SciTegic12091611202D

 28 31  0  0  0  0            999 V2000
   -4.9282   -3.7385    0.0000 C   0  0
    1.5604   -6.0143    0.0000 C   0  0  1  0  0  0
   -2.3155    0.7475    0.0000 N   0  0
   -2.3155   -0.7475    0.0000 C   0  0
    1.7138    1.2033    0.0000 N   0  0
   -1.0028    1.5132    0.0000 C   0  0
    1.7138   -1.2033    0.0000 N   0  0
   -2.3350   -5.2470    0.0000 C   0  0
   -1.0449   -7.5017    0.0000 C   0  0
   -3.6187   -1.4919    0.0000 N   0  0
    2.5894   -8.1193    0.0000 O   0  0
    1.5531   -7.5143    0.0000 C   0  0  1  0  0  0
    0.2917   -0.7475    0.0000 C   0  0
    2.5889    0.0182    0.0000 C   0  0
   -2.3301   -3.7470    0.0000 N   0  0
    0.2650   -5.2580    0.0000 C   0  0
   -3.6267   -2.9927    0.0000 C   0  0
   -4.9331   -5.2385    0.0000 C   0  0
   -1.0028   -1.5132    0.0000 C   0  0
   -3.6365   -5.9928    0.0000 N   0  0
    0.2505   -8.2579    0.0000 C   0  0
    0.2917    0.7475    0.0000 C   0  0
   -1.0378   -6.0016    0.0000 N   0  0
    2.1855   -2.6254    0.0000 C   0  0
    3.3606   -2.8684    0.0000 C   0  0
    1.3877   -3.5218    0.0000 C   0  0
    3.7889    0.0269    0.0000 C   0  0
    2.6025   -5.4193    0.0000 F   0  0
 12 11  1  1
 16  2  1  0
 23 16  1  0
 10  4  1  0
  4  3  1  0
 13  7  1  0
 17  1  1  0
 14  5  2  0
  2 12  1  0
 15 17  2  0
 22  5  1  0
 14  7  1  0
 21  9  1  0
 10 17  1  0
  6 22  1  0
 22 13  2  0
  6  3  2  0
 13 19  1  0
 18 20  1  0
 19  4  2  0
  8 23  1  0
  1 18  2  0
 23  9  1  0
  8 20  2  0
  8 15  1  0
 12 21  1  0
  7 24  1  0
 24 25  1  0
 24 26  1  0
 14 27  1  0
  2 28  1  1
M  END
> <chembl_id>
CHEMBL3735958

$$$$

  SciTegic10311316212D

 47 52  0  0  0  0            999 V2000
   12.1341  -16.9464    0.0000 O   0  0
   11.9236  -17.7388    0.0000 S   0  0
   12.7151  -17.5249    0.0000 O   0  0
    3.4407  -20.4463    0.0000 C   0  0
    3.4395  -21.2658    0.0000 C   0  0
    4.1476  -21.6748    0.0000 C   0  0
    4.8573  -21.2653    0.0000 C   0  0
    4.8544  -20.4427    0.0000 C   0  0
    4.1458  -20.0374    0.0000 C   0  0
    2.7291  -20.0334    0.0000 N   0  0
    2.7309  -19.2153    0.0000 C   0  0
    2.0271  -18.8070    0.0000 C   0  0
    1.3171  -19.2122    0.0000 C   0  0
    1.3153  -20.0304    0.0000 C   0  0
    2.0236  -20.4433    0.0000 C   0  0
    4.1474  -22.4919    0.0000 O   0  0
    3.4396  -22.9004    0.0000 C   0  0
    5.5656  -21.6728    0.0000 N   0  0
    6.2727  -21.2631    0.0000 C   0  0
    6.9777  -21.6710    0.0000 N   0  0
    7.6843  -21.2620    0.0000 C   0  0
    7.6834  -20.4439    0.0000 C   0  0
    6.9701  -20.0366    0.0000 C   0  0
    6.2664  -20.4480    0.0000 N   0  0
    6.9659  -19.2194    0.0000 O   0  0
    7.6716  -18.8072    0.0000 C   0  0
    8.3783  -19.2125    0.0000 C   0  0
    9.0834  -18.8010    0.0000 C   0  0
    9.0797  -17.9830    0.0000 C   0  0
    8.3649  -17.5782    0.0000 C   0  0
    7.6627  -17.9920    0.0000 C   0  0
    8.3900  -20.0333    0.0000 Cl  0  0
    9.7930  -19.2063    0.0000 C   0  0
   10.4988  -18.7945    0.0000 O   0  0
   10.4950  -17.9773    0.0000 C   0  0
   11.1486  -17.4935    0.0000 C   0  0
   10.8925  -16.7174    0.0000 N   0  3
   10.0752  -16.7212    0.0000 O   0  0
    9.8264  -17.4996    0.0000 N   0  0
   11.3698  -16.0541    0.0000 O   0  5
   12.1028  -18.5389    0.0000 C   0  0
   11.4980  -19.0848    0.0000 C   0  0
   11.6728  -19.8823    0.0000 C   0  0
   12.4524  -20.1302    0.0000 C   0  0
   13.0573  -19.5745    0.0000 C   0  0
   12.8794  -18.7791    0.0000 C   0  0
    0.6109  -18.8011    0.0000 O   0  0
  2  1  2  0
  3  2  2  0
  4  5  2  0
  5  6  1  0
  6  7  2  0
  7  8  1  0
  8  9  2  0
  9  4  1  0
 10 11  1  0
 10 15  1  0
 11 12  1  0
 12 13  1  0
 13 14  1  0
 14 15  1  0
  4 10  1  0
  6 16  1  0
 16 17  1  0
  7 18  1  0
 18 19  1  0
 19 20  2  0
 20 21  1  0
 21 22  2  0
 22 23  1  0
 23 24  2  0
 24 19  1  0
 23 25  1  0
 25 26  1  0
 26 27  2  0
 27 28  1  0
 28 29  2  0
 29 30  1  0
 30 31  2  0
 31 26  1  0
 22 32  1  0
 28 33  1  0
 33 34  1  0
 34 35  1  0
 35 36  1  0
 36 37  2  0
 37 38  1  0
 38 39  1  0
 39 35  2  0
 37 40  1  0
 36  2  1  0
  2 41  1  0
 41 42  2  0
 42 43  1  0
 43 44  2  0
 44 45  1  0
 45 46  2  0
 46 41  1  0
 13 47  1  0
M  CHG  2  37   1  40  -1
M  END
> <chembl_id>
CHEMBL2408829

$$$$

  SciTegic09081514182D

 47 50  0  0  0  0            999 V2000
    1.2990   -0.7500    0.0000 C   0  0
    1.2990    0.7500    0.0000 C   0  0
    0.0000    1.5000    0.0000 C   0  0
   -1.2990    0.7500    0.0000 C   0  0
   -1.2990   -0.7500    0.0000 C   0  0
    0.0000   -1.5000    0.0000 C   0  0
   -2.5972   -1.5031    0.0000 C   0  0
   -2.5951   -3.0039    0.0000 C   0  0
   -3.8933   -3.7570    0.0000 C   0  0
   -3.8912   -5.2578    0.0000 C   0  0
   -4.9336   -3.1588    0.0000 O   0  0
   -5.1894   -6.0109    0.0000 C   0  0
   -5.1872   -7.5117    0.0000 C   0  0
   -6.2296   -5.4127    0.0000 O   0  0
   -6.4854   -8.2648    0.0000 C   0  0
   -6.4833   -9.7657    0.0000 C   0  0
   -7.7797  -10.5203    0.0000 C   0  0
   -7.7745  -12.0202    0.0000 C   0  0
   -6.4729  -12.7657    0.0000 C   0  0
   -5.1764  -12.0112    0.0000 C   0  0
   -5.1816  -10.5113    0.0000 C   0  0
    2.5973   -1.5031    0.0000 O   0  0
    2.5972    1.5031    0.0000 O   0  0
   -6.4708  -14.2666    0.0000 O   0  0
   -3.8726  -12.7545    0.0000 O   0  0
    2.5956   -2.7031    0.0000 C   0  0
    2.5951    3.0039    0.0000 C   0  0
    3.8933    3.7570    0.0000 C   0  0
    3.8912    5.2578    0.0000 N   0  0
    4.9336    3.1588    0.0000 O   0  0
   -2.8363  -12.1494    0.0000 C   0  0
   -7.7690  -15.0196    0.0000 C   0  0
   -7.7669  -16.5205    0.0000 C   0  0
   -9.0651  -17.2735    0.0000 N   0  0
   -6.7266  -17.1187    0.0000 O   0  0
    5.1894    6.0109    0.0000 C   0  0
   -9.0630  -18.7743    0.0000 C   0  0
    5.1894    7.5110    0.0000 C   0  0
    6.4884    8.2610    0.0000 C   0  0
    7.7875    7.5110    0.0000 C   0  0
    7.7875    6.0110    0.0000 C   0  0
    6.4885    5.2610    0.0000 C   0  0
  -10.3594  -19.5289    0.0000 C   0  0
  -10.3543  -21.0289    0.0000 C   0  0
   -9.0526  -21.7744    0.0000 C   0  0
   -7.7562  -21.0200    0.0000 C   0  0
   -7.7614  -19.5200    0.0000 C   0  0
  1  2  2  0
  2  3  1  0
  3  4  2  0
  4  5  1  0
  5  6  2  0
  6  1  1  0
  5  7  1  0
  7  8  2  0
  8  9  1  0
  9 10  2  0
  9 11  1  0
 10 12  1  0
 12 13  1  0
 12 14  2  0
 13 15  2  0
 15 16  1  0
 16 17  2  0
 17 18  1  0
 18 19  2  0
 19 20  1  0
 20 21  2  0
 21 16  1  0
  1 22  1  0
  2 23  1  0
 19 24  1  0
 20 25  1  0
 22 26  1  0
 23 27  1  0
 27 28  1  0
 28 29  1  0
 28 30  2  0
 25 31  1  0
 24 32  1  0
 32 33  1  0
 33 34  1  0
 33 35  2  0
 29 36  1  0
 34 37  1  0
 36 38  2  0
 38 39  1  0
 39 40  2  0
 40 41  1  0
 41 42  2  0
 42 36  1  0
 37 43  2  0
 43 44  1  0
 44 45  2  0
 45 46  1  0
 46 47  2  0
 47 37  1  0
M  END
> <chembl_id>
CHEMBL3402859

$$$$

  SciTegic01161211252D

 29 31  0  0  0  0            999 V2000
   18.0444  -12.1500    0.0000 C   0  0
   18.0432  -12.9773    0.0000 C   0  0
   18.7581  -13.3902    0.0000 C   0  0
   18.7563  -11.7372    0.0000 C   0  0
   19.4716  -12.1463    0.0000 C   0  0
   19.4724  -12.9732    0.0000 C   0  0
   20.1877  -13.3841    0.0000 N   0  0
   20.9027  -12.9694    0.0000 C   0  0
   20.8980  -12.1394    0.0000 C   0  0
   20.1821  -11.7322    0.0000 C   0  0
   20.1777  -10.9072    0.0000 N   0  0
   20.8900  -10.4909    0.0000 C   0  0
   21.6056  -10.9051    0.0000 C   0  0
   22.3174  -10.4895    0.0000 C   0  0
   22.3135   -9.6636    0.0000 C   0  0
   21.5918   -9.2551    0.0000 C   0  0
   20.8830   -9.6731    0.0000 C   0  0
   17.3298  -11.7376    0.0000 O   0  0
   16.6155  -12.1503    0.0000 C   0  0
   15.9009  -11.7380    0.0000 C   0  0
   15.1865  -12.1506    0.0000 O   0  0
   14.4719  -11.7383    0.0000 C   0  0
   23.0339  -10.8985    0.0000 C   0  0
   23.7458  -11.3083    0.0000 C   0  0
   17.3284  -13.3893    0.0000 O   0  0
   16.6143  -12.9762    0.0000 C   0  0
   15.8995  -13.3881    0.0000 C   0  0
   15.1854  -12.9751    0.0000 O   0  0
   14.4706  -13.3870    0.0000 C   0  0
 13 14  1  0
  6  7  1  0
 14 15  2  0
  1  2  2  0
 15 16  1  0
  7  8  2  0
 16 17  2  0
 17 12  1  0
  5  4  2  0
  1 18  1  0
  8  9  1  0
 18 19  1  0
  4  1  1  0
 19 20  1  0
  9 10  2  0
 20 21  1  0
 10  5  1  0
 21 22  1  0
 14 23  1  0
 10 11  1  0
 23 24  3  0
  2  3  1  0
  2 25  1  0
 11 12  1  0
 25 26  1  0
  5  6  1  0
 26 27  1  0
 12 13  2  0
 27 28  1  0
  3  6  2  0
 28 29  1  0
M  END
> <chembl_id>
CHEMBL1089203

$$$$

  SciTegic05221516342D

 32 35  0  0  0  0            999 V2000
   20.7627  -14.8126    0.0000 C   0  0
   20.7615  -15.6321    0.0000 N   0  0
   21.4696  -16.0411    0.0000 C   0  0
   22.1792  -15.6316    0.0000 N   0  0
   22.1764  -14.8090    0.0000 C   0  0
   21.4678  -14.4037    0.0000 C   0  0
   22.8826  -14.3977    0.0000 N   0  0
   23.5918  -14.8037    0.0000 C   0  0
   23.5916  -15.6185    0.0000 C   0  0
   24.3000  -16.0244    0.0000 C   0  0
   25.0071  -15.6130    0.0000 C   0  0
   25.0014  -14.7916    0.0000 C   0  0
   24.2924  -14.3895    0.0000 N   0  0
   24.3026  -16.8415    0.0000 N   0  0
   25.0117  -17.2478    0.0000 C   0  0
   25.0144  -18.0650    0.0000 C   0  0
   25.7181  -16.8369    0.0000 O   0  0
   24.3062  -18.4747    0.0000 C   0  0
   24.3085  -19.2911    0.0000 C   0  0
   25.0181  -19.6982    0.0000 C   0  0
   25.7268  -19.2829    0.0000 C   0  0
   25.7210  -18.4678    0.0000 C   0  0
   23.5977  -18.0674    0.0000 Cl  0  0
   26.4261  -18.0547    0.0000 Cl  0  0
   21.4694  -16.8583    0.0000 N   0  0
   20.7603  -17.2605    0.0000 C   0  0
   20.7582  -18.0742    0.0000 C   0  0
   21.4639  -18.4868    0.0000 C   0  0
   22.1736  -18.0796    0.0000 C   0  0
   22.1774  -17.2598    0.0000 C   0  0
   21.4607  -19.3039    0.0000 O   0  0
   20.7513  -19.7097    0.0000 C   0  0
  1  2  2  0
  2  3  1  0
  3  4  2  0
  4  5  1  0
  5  6  2  0
  6  1  1  0
  5  7  1  0
  7  8  1  0
  8  9  2  0
  9 10  1  0
 10 11  2  0
 11 12  1  0
 12 13  2  0
 13  8  1  0
 10 14  1  0
 14 15  1  0
 15 16  1  0
 15 17  2  0
 16 18  2  0
 18 19  1  0
 19 20  2  0
 20 21  1  0
 21 22  2  0
 22 16  1  0
 18 23  1  0
 22 24  1  0
  3 25  1  0
 25 26  1  0
 25 30  1  0
 26 27  1  0
 27 28  1  0
 28 29  1  0
 29 30  1  0
 28 31  1  0
 31 32  1  0
M  END
> <chembl_id>
CHEMBL3352835

$$$$

  SciTegic04091414352D

 37 41  0  0  0  0            999 V2000
   11.8276   -6.6649    0.0000 N   0  0
   11.8408   -5.8473    0.0000 C   0  0
   12.5555   -5.4500    0.0000 C   0  0
   13.2569   -5.8702    0.0000 N   0  0
   13.2437   -6.6878    0.0000 C   0  0
   12.5291   -7.0851    0.0000 C   0  0
   11.1130   -7.0622    0.0000 C   0  0
   11.0998   -7.8798    0.0000 O   0  0
   10.4116   -6.6420    0.0000 N   0  0
   13.9715   -5.4728    0.0000 C   0  0
   14.6730   -5.8931    0.0000 C   0  0
   15.3876   -5.4957    0.0000 O   0  0
    7.5531   -8.2314    0.0000 N   0  0
    6.8516   -7.8112    0.0000 C   0  0
    6.8648   -6.9937    0.0000 N   0  0
    7.5795   -6.5963    0.0000 C   0  0
    8.2809   -7.0165    0.0000 C   0  0
    8.9955   -6.6192    0.0000 C   0  0
    9.6970   -7.0394    0.0000 C   0  0
    9.6838   -7.8569    0.0000 C   0  0
    8.9691   -8.2543    0.0000 C   0  0
    8.2677   -7.8341    0.0000 C   0  0
   10.3852   -8.2772    0.0000 O   0  0
    9.9429  -10.3462    0.0000 O   0  0
    9.7028   -9.5646    0.0000 C   0  0
   10.3720   -9.0947    0.0000 C   0  0  2  0  0  0
   11.0257   -9.5859    0.0000 C   0  0
   10.7605  -10.3594    0.0000 C   0  0
    7.5927   -5.7788    0.0000 N   0  0
    6.8912   -5.3585    0.0000 C   0  0
    6.1766   -5.7559    0.0000 C   0  0
    5.4752   -5.3357    0.0000 C   0  0
    5.4884   -4.5181    0.0000 C   0  0
    6.2030   -4.1208    0.0000 C   0  0
    6.9044   -4.5410    0.0000 C   0  0
    4.7870   -4.0979    0.0000 F   0  0
    4.7606   -5.7330    0.0000 Cl  0  0
  1  2  1  0
  2  3  1  0
  3  4  1  0
  4  5  1  0
  5  6  1  0
  1  6  1  0
  7  8  2  0
  7  9  1  0
  1  7  1  0
 10 11  1  0
 11 12  1  0
  4 10  1  0
 13 14  1  0
 14 15  2  0
 15 16  1  0
 16 17  2  0
 17 18  1  0
 18 19  2  0
 19 20  1  0
 20 21  2  0
 21 22  1  0
 13 22  2  0
 17 22  1  0
 24 25  1  0
 25 26  1  0
 26 27  1  0
 27 28  1  0
 24 28  1  0
 26 23  1  1
 20 23  1  0
 30 31  1  0
 31 32  2  0
 32 33  1  0
 33 34  2  0
 34 35  1  0
 30 35  2  0
 33 36  1  0
 32 37  1  0
 29 30  1  0
 16 29  1  0
  9 19  1  0
M  END
> <chembl_id>
CHEMBL3092303

$$$$

  SciTegic12201611502D

 30 33  0  0  0  0            999 V2000
   -2.1332   -2.2973    0.0000 N   0  0
   -3.4277   -1.5498    0.0000 C   0  0
   -3.4277    0.0000    0.0000 N   0  0
   -2.1332    0.6928    0.0000 C   0  0
   -0.8205    0.0000    0.0000 C   0  0
    0.4558    0.6928    0.0000 C   0  0
    1.7503    0.0000    0.0000 C   0  0
    1.7503   -1.5498    0.0000 C   0  0
    0.4558   -2.2973    0.0000 C   0  0
   -0.8205   -1.5498    0.0000 C   0  0
    0.4558    2.1879    0.0000 O   0  0
    3.0631    0.6928    0.0000 O   0  0
    3.0631    2.1879    0.0000 C   0  0
    1.7503    2.9537    0.0000 C   0  0
   -2.1454    2.1947    0.0000 N   0  0
    3.0410   -2.3153    0.0000 O   0  0
    3.0239   -3.8160    0.0000 C   0  0
    4.3146   -4.5820    0.0000 C   0  0
    4.2976   -6.0827    0.0000 O   0  0
    5.3296   -6.6951    0.0000 C   0  0
   -3.4508    2.9353    0.0000 C   0  0
   -3.4653    4.4352    0.0000 C   0  0
   -4.7714    5.1728    0.0000 C   0  0
   -6.0632    4.4104    0.0000 C   0  0
   -6.0489    2.9104    0.0000 C   0  0
   -4.7427    2.1729    0.0000 C   0  0
   -4.7827    6.6736    0.0000 N   0  3
   -3.7484    7.2820    0.0000 O   0  0
   -5.8266    7.2654    0.0000 O   0  5
   -7.1082    5.0004    0.0000 Cl  0  0
  1  2  1  0
  2  3  2  0
  3  4  1  0
  4  5  2  0
  5  6  1  0
  6  7  2  0
  7  8  1  0
  8  9  2  0
  9 10  1  0
  1 10  2  0
  5 10  1  0
 12 13  1  0
 13 14  1  0
 11 14  1  0
  6 11  1  0
  7 12  1  0
  4 15  1  0
 17 18  1  0
 16 17  1  0
 19 20  1  0
 18 19  1  0
  8 16  1  0
 21 22  1  0
 22 23  2  0
 23 24  1  0
 24 25  2  0
 25 26  1  0
 21 26  2  0
 27 28  2  0
 27 29  1  0
 23 27  1  0
 24 30  1  0
 15 21  1  0
M  CHG  2  27   1  29  -1
M  END
> <chembl_id>
CHEMBL3806200

$$$$

  SciTegic09261414462D

 27 29  0  0  0  0            999 V2000
   31.0819  -22.9996    0.0000 N   0  0
   31.7915  -22.5902    0.0000 C   0  0
   31.7887  -21.7675    0.0000 N   0  0
   31.0801  -21.3622    0.0000 C   0  0
   30.3738  -22.5906    0.0000 C   0  0
   30.3751  -21.7741    0.0000 C   0  0
   29.5989  -21.5206    0.0000 C   0  0
   29.1179  -22.1805    0.0000 C   0  0
   29.5969  -22.8417    0.0000 S   0  0
   31.0763  -20.5450    0.0000 N   0  0
   31.7822  -20.1332    0.0000 C   0  0
   32.4896  -20.5433    0.0000 C   0  0
   33.1949  -20.1322    0.0000 C   0  0
   33.1916  -19.3141    0.0000 C   0  0
   32.4770  -18.9090    0.0000 C   0  0
   31.7746  -19.3225    0.0000 C   0  0
   28.3007  -22.1793    0.0000 N   0  0
   27.8931  -21.4710    0.0000 C   0  0
   27.0759  -21.4698    0.0000 C   0  0
   28.3027  -20.7639    0.0000 O   0  0
   33.8968  -18.9013    0.0000 F   0  0
   33.9043  -20.5378    0.0000 Cl  0  0
   26.6684  -20.7615    0.0000 C   0  0
   25.8512  -20.7603    0.0000 C   0  0
   25.4436  -20.0520    0.0000 N   0  0
   25.8532  -19.3449    0.0000 C   0  0
   24.6264  -20.0508    0.0000 C   0  0
  5  1  1  0
  1  2  2  0
  2  3  1  0
  3  4  2  0
  4  6  1  0
  5  6  2  0
  6  7  1  0
  7  8  2  0
  8  9  1  0
  9  5  1  0
  4 10  1  0
 10 11  1  0
 11 12  2  0
 12 13  1  0
 13 14  2  0
 14 15  1  0
 15 16  2  0
 16 11  1  0
  8 17  1  0
 17 18  1  0
 18 19  1  0
 18 20  2  0
 14 21  1  0
 13 22  1  0
 19 23  2  0
 23 24  1  0
 24 25  1  0
 25 26  1  0
 25 27  1  0
M  END
> <chembl_id>
CHEMBL3233777

$$$$

  SciTegic01161211252D

 42 48  0  0  0  0            999 V2000
   12.8103   -3.0320    0.0000 C   0  0
   12.8091   -3.8595    0.0000 C   0  0
   13.5241   -4.2725    0.0000 C   0  0
   14.2406   -3.8590    0.0000 C   0  0
   14.2377   -3.0284    0.0000 C   0  0
   13.5223   -2.6193    0.0000 C   0  0
   14.9562   -4.2681    0.0000 C   0  0
   15.0434   -5.0890    0.0000 C   0  0
   15.7095   -3.9313    0.0000 N   0  0
   16.2626   -4.5435    0.0000 C   0  0
   15.8533   -5.2579    0.0000 N   0  0
   16.4063   -5.8679    0.0000 C   0  0
   17.1575   -5.5305    0.0000 C   0  0
   17.0686   -4.7120    0.0000 S   0  0
   14.3355   -5.5104    0.0000 C   0  0
   13.6155   -5.1052    0.0000 C   0  0
   12.9067   -5.5258    0.0000 C   0  0
   14.3471   -6.3321    0.0000 N   0  0
   13.6412   -6.7551    0.0000 C   0  0
   12.9127   -6.3526    0.0000 N   0  0
   13.6557   -7.5801    0.0000 N   0  0
   12.9485   -8.0052    0.0000 C   0  0
   12.2315   -7.6026    0.0000 C   0  0
   11.5249   -8.0270    0.0000 C   0  0
   11.5389   -8.8528    0.0000 C   0  0
   12.2656   -9.2525    0.0000 C   0  0
   12.9693   -8.8259    0.0000 C   0  0
   10.8323   -9.2788    0.0000 N   0  0
   10.1125   -8.8738    0.0000 C   0  0
    9.4079   -9.2962    0.0000 C   0  0
    9.4193  -10.1216    0.0000 O   0  0
   10.1414  -10.5228    0.0000 C   0  0
   10.8522  -10.0985    0.0000 C   0  0
   13.5200   -1.8317    0.0000 N   0  0
   12.7910   -1.4454    0.0000 C   0  0
   12.7612   -0.6208    0.0000 C   0  0
   12.0918   -1.8834    0.0000 O   0  0
   13.4629   -0.1854    0.0000 C   0  0
   13.4334    0.6384    0.0000 C   0  0
   12.7039    1.0256    0.0000 C   0  0
   12.0024    0.5831    0.0000 C   0  0
   12.0353   -0.2392    0.0000 C   0  0
  7  8  2  0
 11 12  1  0
 12 13  2  0
 13 14  1  0
 19 21  1  0
 14 10  1  0
 21 22  1  0
  1  2  2  0
 22 23  2  0
  3  4  2  0
 23 24  1  0
 15 16  2  0
 24 25  2  0
 25 26  1  0
 16 17  1  0
 26 27  2  0
 27 22  1  0
 17 20  2  0
 25 28  1  0
 28 29  1  0
  8 11  1  0
 19 18  2  0
 18 15  1  0
  8 15  1  0
 19 20  1  0
 28 33  1  0
 29 30  1  0
 30 31  1  0
 31 32  1  0
 32 33  1  0
  6 34  1  0
 10  9  2  0
  9  7  1  0
  4  7  1  0
 10 11  1  0
  4  5  1  0
  2  3  1  0
  5  6  2  0
  6  1  1  0
 34 35  1  0
 35 36  1  0
 35 37  2  0
 36 38  2  0
 38 39  1  0
 39 40  2  0
 40 41  1  0
 41 42  2  0
 42 36  1  0
M  END
> <chembl_id>
CHEMBL1090350

$$$$

  SciTegic04091414152D

 45 50  0  0  0  0            999 V2000
   12.1817   -0.3125    0.0000 N   0  0
   12.1806   -1.1398    0.0000 C   0  0
   12.8953   -1.5527    0.0000 N   0  0
   12.8935    0.1080    0.0000 C   0  0
   13.6089   -0.3088    0.0000 C   0  0
   13.6097   -1.1356    0.0000 C   0  0
   14.3250   -1.5466    0.0000 N   0  0
   15.0400   -1.1319    0.0000 C   0  0
   15.0353   -0.3019    0.0000 N   0  0
   14.3193    0.1114    0.0000 C   0  0
   11.4657   -1.5518    0.0000 N   0  0
   14.3267   -2.3716    0.0000 C   0  0
   15.7561   -1.5416    0.0000 O   0  0
   15.7472    0.1184    0.0000 C   0  0
   16.4641   -0.2932    0.0000 C   0  0
   16.4645   -1.1178    0.0000 C   0  0
   17.1805   -1.5258    0.0000 C   0  0
   17.8935   -1.1089    0.0000 C   0  0
   17.8858   -0.2796    0.0000 C   0  0
   17.1691    0.1254    0.0000 C   0  0
   13.6105   -2.7816    0.0000 C   0  0
   13.6118   -3.6059    0.0000 C   0  0
   14.3277   -4.0177    0.0000 C   0  0
   15.0436   -3.5993    0.0000 C   0  0
   15.0388   -2.7764    0.0000 C   0  0
   11.4651   -2.3768    0.0000 C   0  0
   10.7502   -2.7871    0.0000 C   0  0
   10.7492   -3.6113    0.0000 C   0  0
   11.4639   -4.0252    0.0000 C   0  0
   12.1810   -3.6088    0.0000 C   0  0
   12.1785   -2.7860    0.0000 C   0  0
   11.4643   -4.8502    0.0000 N   0  0
   10.7497   -5.2637    0.0000 C   0  0
   10.7482   -6.0851    0.0000 C   0  0
   11.4610   -6.5011    0.0000 N   0  0
   12.1771   -6.0894    0.0000 C   0  0
   12.1803   -5.2618    0.0000 C   0  0
   11.4584   -7.3260    0.0000 C   0  0
   10.0365   -2.3732    0.0000 O   0  0
    9.3213   -2.7844    0.0000 C   0  0
   14.3305   -4.8427    0.0000 N   0  0
   15.0464   -5.2527    0.0000 C   0  0
   15.0492   -6.0777    0.0000 C   0  0
   15.7594   -4.8378    0.0000 O   0  0
   15.7651   -6.4878    0.0000 C   0  0
  1  2  2  0
  2  3  1  0
  3  6  2  0
  5  4  2  0
  4  1  1  0
  5  6  1  0
  6  7  1  0
  7  8  1  0
  8  9  1  0
  9 10  1  0
 10  5  1  0
  2 11  1  0
  7 12  1  0
  8 13  2  0
  9 14  1  0
 14 15  1  0
 15 16  2  0
 16 17  1  0
 17 18  2  0
 18 19  1  0
 19 20  2  0
 20 15  1  0
 12 21  1  0
 21 22  1  0
 22 23  1  0
 23 24  1  0
 24 25  1  0
 25 12  1  0
 11 26  1  0
 26 27  2  0
 27 28  1  0
 28 29  2  0
 29 30  1  0
 30 31  2  0
 31 26  1  0
 29 32  1  0
 32 33  1  0
 32 37  1  0
 33 34  1  0
 34 35  1  0
 35 36  1  0
 36 37  1  0
 35 38  1  0
 27 39  1  0
 39 40  1  0
 23 41  1  0
 41 42  1  0
 42 43  1  0
 42 44  2  0
 43 45  2  0
M  END
> <chembl_id>
CHEMBL3087209

$$$$

  SciTegic04201616412D

 32 35  0  0  0  0            999 V2000
    0.0000    0.7486    0.0000 C   0  0
   -1.2964    1.4973    0.0000 C   0  0
    0.0000   -0.7486    0.0000 C   0  0
    1.2964    1.4973    0.0000 C   0  0
   -2.6111    0.7486    0.0000 N   0  0
    1.2964   -1.4973    0.0000 C   0  0
   -1.2907    2.9981    0.0000 N   0  0
    2.5929    0.7486    0.0000 C   0  0
    2.5929   -0.7486    0.0000 C   0  0
   -5.1852    3.7608    0.0000 C   0  0
   -1.2964   -1.4973    0.0000 N   0  0
   -3.8880    3.0076    0.0000 C   0  0
   -2.6111   -0.7486    0.0000 C   0  0
   -2.5870    3.7544    0.0000 C   0  0
   -5.1815    5.2608    0.0000 C   0  0
   -3.8807    6.0076    0.0000 C   0  0
   -2.5835    5.2544    0.0000 C   0  0
    3.8911   -1.5017    0.0000 O   0  0
   -3.8777    7.2076    0.0000 Cl  0  0
   -1.5428    5.8519    0.0000 F   0  0
    3.8894   -2.7017    0.0000 C   0  0
    3.8911    1.5017    0.0000 O   0  0
    3.8890    3.0026    0.0000 C   0  0
    5.1872    3.7556    0.0000 N   0  0
    2.8487    3.6008    0.0000 O   0  0
    5.1872    5.2557    0.0000 C   0  0
    6.4863    6.0057    0.0000 C   0  0  1  0  0  0
    7.7853    5.2557    0.0000 N   0  0
    8.8245    5.8558    0.0000 C   0  0
    6.4863    3.0057    0.0000 C   0  0
    7.7853    3.7557    0.0000 C   0  0
    6.4862    7.2057    0.0000 C   0  0
  2  1  1  0
  3  1  1  0
  4  1  2  0
  5  2  2  0
  6  3  2  0
  7  2  1  0
  8  4  1  0
  9  8  2  0
 10 12  1  0
 11  3  1  0
 12 14  2  0
 13 11  2  0
 14  7  1  0
 15 16  1  0
 16 17  2  0
 17 14  1  0
 18  9  1  0
  6  9  1  0
 13  5  1  0
 10 15  2  0
 16 19  1  0
 17 20  1  0
 18 21  1  0
  8 22  1  0
 22 23  1  0
 23 24  1  0
 23 25  2  0
 24 26  1  0
 24 30  1  0
 26 27  1  0
 27 28  1  0
 28 31  1  0
 28 29  1  0
 31 30  1  0
 27 32  1  6
M  END
> <chembl_id>
CHEMBL3623288

$$$$

  SciTegic04091414352D

 37 40  0  0  0  0            999 V2000
   11.2883   -8.0707    0.0000 C   0  0
    7.8507   -5.0442    0.0000 C   0  0
   10.6367   -7.5741    0.0000 C   0  0  2  0  0  0
    6.4892   -2.5482    0.0000 C   0  0
    6.4500   -4.1896    0.0000 C   0  0
   10.6563   -6.7535    0.0000 O   0  0
    7.1308   -5.4354    0.0000 N   0  0
   11.3763   -6.3581    0.0000 O   0  0
    9.9714   -5.5034    0.0000 C   0  0
    5.0689   -2.5142    0.0000 F   0  0
   10.6955   -5.1121    0.0000 N   0  0
    7.1896   -2.9734    0.0000 C   0  0
   11.0148   -8.8449    0.0000 C   0  0
    5.7693   -2.9395    0.0000 C   0  0
    8.5511   -5.4694    0.0000 C   0  0
    9.2711   -5.0781    0.0000 C   0  0
    7.1112   -6.2562    0.0000 C   0  0
   12.1159   -5.1460    0.0000 N   0  0
    5.0297   -4.1556    0.0000 Cl  0  0
   11.3959   -5.5373    0.0000 C   0  0
   12.1355   -4.3254    0.0000 C   0  0
    9.9559   -6.3241    0.0000 C   0  0
    9.9620   -8.0389    0.0000 C   0  0
    5.7496   -3.7602    0.0000 C   0  0
    8.5315   -6.2901    0.0000 C   0  0
   10.1941   -8.8253    0.0000 O   0  0
    7.8115   -6.6855    0.0000 N   0  0
   12.8163   -5.5713    0.0000 C   0  0
    7.1700   -3.7942    0.0000 C   0  0
    9.2318   -6.7195    0.0000 C   0  0
    7.8704   -4.2235    0.0000 N   0  0
   13.5328   -5.1785    0.0000 C   0  0
   14.2313   -5.6027    0.0000 N   0  0
   14.9479   -5.2099    0.0000 C   0  0
   14.2132   -6.4197    0.0000 C   0  0
   13.4966   -6.8125    0.0000 C   0  0
   14.9660   -4.3929    0.0000 C   0  0
 29  5  1  0
 18 20  1  0
 24 19  1  0
 30 25  1  0
 31 29  1  0
 27 25  2  0
 27 17  1  0
 20 11  1  0
  9 22  1  0
 22  6  1  0
 24 14  1  0
 15 25  1  0
  3  1  1  0
  2 31  1  0
 23  3  1  0
  7  2  1  0
 29 12  2  0
 26 13  1  0
 14  4  2  0
 20  8  2  0
 15 16  1  0
  2 15  2  0
 18 21  1  0
 18 28  1  0
 22 30  2  0
 16  9  2  0
 26 23  1  0
  4 12  1  0
  1 13  1  0
 17  7  2  0
  3  6  1  1
 14 10  1  0
 11  9  1  0
  5 24  2  0
 28 32  1  0
 32 33  1  0
 33 34  1  0
 33 35  1  0
 35 36  1  0
 34 37  1  0
M  END
> <chembl_id>
CHEMBL3092316

$$$$

  SciTegic02271217242D

 34 37  0  0  0  0            999 V2000
   10.3206  -23.0735    0.0000 N   0  0
   11.0370  -22.6602    0.0000 C   0  0
   11.0341  -21.8297    0.0000 N   0  0
   10.3188  -21.4205    0.0000 C   0  0
    9.6057  -22.6607    0.0000 C   0  0
    9.6070  -21.8318    0.0000 C   0  0
    8.8190  -21.5744    0.0000 N   0  0
    8.3307  -22.2443    0.0000 C   0  0
    8.8170  -22.9156    0.0000 C   0  0
   10.3169  -20.5955    0.0000 N   0  0
   11.0305  -20.1815    0.0000 C   0  0
   11.7428  -20.5954    0.0000 C   0  0
   12.4559  -20.1820    0.0000 C   0  0
   12.4545  -19.3561    0.0000 C   0  0
   11.7341  -18.9453    0.0000 C   0  0
   11.0240  -19.3611    0.0000 C   0  0
   13.1710  -20.5932    0.0000 Cl  0  0
   13.1675  -18.9411    0.0000 O   0  0
    8.5653  -20.7894    0.0000 C   0  0
   13.8834  -19.3511    0.0000 C   0  0
   13.8835  -20.1761    0.0000 C   0  0
   14.5985  -20.5860    0.0000 C   0  0
   15.3125  -20.1709    0.0000 C   0  0
   15.3070  -19.3417    0.0000 C   0  0
   14.5913  -18.9355    0.0000 C   0  0
   16.0185  -18.9241    0.0000 C   0  0
   16.7359  -19.3316    0.0000 F   0  0
   16.0127  -18.0991    0.0000 F   0  0
   16.7292  -18.5042    0.0000 F   0  0
    7.7586  -20.6166    0.0000 C   0  0
    7.5048  -19.8316    0.0000 O   0  0
    6.6981  -19.6588    0.0000 C   0  0
    6.4444  -18.8738    0.0000 C   0  0
    5.6377  -18.7011    0.0000 O   0  0
 16 11  1  0
  6  7  1  0
 13 17  1  0
  7  8  1  0
 14 18  1  0
  8  9  2  0
  7 19  1  0
  9  5  1  0
 18 20  1  0
  4  6  1  0
 20 21  2  0
  4 10  1  0
 21 22  1  0
  5  6  2  0
 22 23  2  0
 10 11  1  0
 23 24  1  0
  1  2  2  0
 24 25  2  0
 25 20  1  0
 11 12  2  0
 24 26  1  0
  5  1  1  0
 26 27  1  0
 12 13  1  0
 26 28  1  0
  2  3  1  0
 26 29  1  0
 13 14  2  0
 19 30  1  0
 30 31  1  0
 14 15  1  0
 31 32  1  0
  3  4  2  0
 32 33  1  0
 15 16  2  0
 33 34  1  0
M  END
> <chembl_id>
CHEMBL1923010

$$$$

  SciTegic08011209522D

 40 44  0  0  0  0            999 V2000
   -2.9181   -5.4875    0.0000 N   0  0
   -2.9193   -6.3148    0.0000 C   0  0
   -2.2044   -6.7277    0.0000 N   0  0
   -2.2062   -5.0747    0.0000 C   0  0
   -1.4909   -5.4838    0.0000 C   0  0
   -1.4874   -6.3169    0.0000 C   0  0
   -0.7683   -6.7282    0.0000 N   0  0
   -0.0479   -6.3110    0.0000 C   0  0
   -0.0513   -5.4779    0.0000 N   0  0
   -0.7751   -5.0620    0.0000 C   0  0
   -0.7643   -7.5498    0.0000 C   0  0
   -1.4793   -7.9636    0.0000 C   0  0
   -1.4774   -8.7878    0.0000 C   0  0
   -0.7612   -9.1992    0.0000 C   0  0
   -0.0455   -8.7803    0.0000 C   0  0
   -0.0509   -7.9575    0.0000 C   0  0
   -3.6341   -6.7268    0.0000 N   0  0
   -3.6347   -7.5518    0.0000 C   0  0
   -4.3496   -7.9621    0.0000 C   0  0
   -4.3506   -8.7864    0.0000 C   0  0
   -3.6359   -9.2003    0.0000 C   0  0
   -2.9188   -8.7839    0.0000 C   0  0
   -2.9213   -7.9610    0.0000 C   0  0
    0.6677   -6.7216    0.0000 O   0  0
    0.6715   -9.1884    0.0000 N   0  0
    0.6767  -10.0133    0.0000 C   0  0
    1.3937  -10.4214    0.0000 C   0  0
   -0.0352  -10.4303    0.0000 O   0  0
    1.3989  -11.2464    0.0000 C   0  0
   -3.6355  -10.0253    0.0000 N   0  0
    0.6619   -5.0632    0.0000 C   0  0
   -5.0633   -7.5483    0.0000 O   0  0
   -5.0618   -6.7233    0.0000 C   0  0
   -2.8942  -10.3813    0.0000 C   0  0
   -2.7080  -11.1870    0.0000 C   0  0
   -4.3782  -10.3846    0.0000 C   0  0
   -3.2173  -11.8343    0.0000 C   0  0
   -4.5598  -11.1908    0.0000 C   0  0
   -4.0412  -11.8337    0.0000 N   0  0
   -4.3974  -12.5779    0.0000 C   0  0
 18 19  2  0
  7  8  1  0
 19 20  1  0
  8  9  1  0
 20 21  2  0
  9 10  1  0
 21 22  1  0
  5  6  1  0
 22 23  2  0
 23 18  1  0
  8 24  2  0
 11 12  2  0
 15 25  1  0
  2  3  1  0
 25 26  1  0
 12 13  1  0
 26 27  1  0
  3  6  2  0
 26 28  2  0
 13 14  2  0
 27 29  2  0
  1  2  2  0
 21 30  1  0
 14 15  1  0
  9 31  1  0
  5  4  2  0
 19 32  1  0
 15 16  2  0
 32 33  1  0
 16 11  1  0
 30 34  1  0
  7 11  1  0
 34 35  1  0
  4  1  1  0
 30 36  1  0
  2 17  1  0
 35 37  1  0
  5 10  1  0
 36 38  1  0
 17 18  1  0
 37 39  1  0
 38 39  1  0
  6  7  1  0
 39 40  1  0
M  END
> <chembl_id>
CHEMBL2032380

$$$$

  SciTegic09081514162D

 45 49  0  0  0  0            999 V2000
    1.2990   -0.7500    0.0000 N   0  0
    1.2990    0.7500    0.0000 C   0  0
    0.0000    1.5000    0.0000 N   0  0
   -1.2990    0.7500    0.0000 C   0  0
   -1.2990   -0.7500    0.0000 C   0  0
    0.0000   -1.5000    0.0000 C   0  0
   -2.5973    1.5031    0.0000 O   0  0
    2.5972    1.5031    0.0000 N   0  0
    2.5951    3.0039    0.0000 C   0  0
   -3.8990    0.7562    0.0000 C   0  0
   -5.1976    1.5069    0.0000 C   0  0
   -6.4972    0.7578    0.0000 C   0  0
   -6.4981   -0.7422    0.0000 C   0  0
   -5.1996   -1.4931    0.0000 C   0  0
   -3.9001   -0.7439    0.0000 C   0  0
    3.8915    3.7585    0.0000 C   0  0
    3.8863    5.2585    0.0000 C   0  0
    2.5847    6.0040    0.0000 C   0  0
    1.2883    5.2495    0.0000 C   0  0
    1.2934    3.7495    0.0000 C   0  0
    2.5795    7.5047    0.0000 N   0  0
    3.8747    8.2614    0.0000 C   0  0
    3.8671    9.7614    0.0000 C   0  0
    2.5643   10.5048    0.0000 N   0  0
    1.2691    9.7483    0.0000 C   0  0
    1.2767    8.2483    0.0000 C   0  0
   -2.3383   -1.3500    0.0000 Cl  0  0
   -5.1975   -2.9939    0.0000 N   0  0
   -3.8972   -3.7433    0.0000 C   0  0
   -3.8950   -5.2441    0.0000 C   0  0
   -2.8586   -3.1422    0.0000 O   0  0
   -2.5947   -5.9935    0.0000 C   0  0
    2.5583   11.7048    0.0000 C   0  0
    5.1954    3.0153    0.0000 O   0  0
    6.2317    3.6204    0.0000 C   0  0
   -5.1940   -5.9960    0.0000 C   0  0
   -6.2326   -6.5971    0.0000 N   0  0
   -2.5926   -7.4944    0.0000 C   0  0
   -1.2941   -8.2453    0.0000 C   0  0
   -1.2950   -9.7453    0.0000 C   0  0
   -2.5945  -10.4944    0.0000 C   0  0
   -3.8931   -9.7436    0.0000 C   0  0
   -3.8921   -8.2436    0.0000 C   0  0
   -2.5985  -11.9953    0.0000 S   0  0
   -3.6390  -12.5931    0.0000 C   0  0
  1  2  2  0
  2  3  1  0
  3  4  2  0
  4  5  1  0
  5  6  2  0
  6  1  1  0
  4  7  1  0
  2  8  1  0
  8  9  1  0
  7 10  1  0
 10 11  2  0
 11 12  1  0
 12 13  2  0
 13 14  1  0
 14 15  2  0
 15 10  1  0
  9 16  2  0
 16 17  1  0
 17 18  2  0
 18 19  1  0
 19 20  2  0
 20  9  1  0
 21 22  1  0
 22 23  1  0
 23 24  1  0
 24 25  1  0
 25 26  1  0
 26 21  1  0
 18 21  1  0
  5 27  1  0
 14 28  1  0
 28 29  1  0
 29 30  1  0
 29 31  2  0
 30 32  2  0
 24 33  1  0
 16 34  1  0
 34 35  1  0
 30 36  1  0
 36 37  3  0
 32 38  1  0
 38 39  2  0
 39 40  1  0
 40 41  2  0
 41 42  1  0
 42 43  2  0
 43 38  1  0
 41 44  1  0
 44 45  1  0
M  END
> <chembl_id>
CHEMBL3425656

$$$$

  SciTegic01161211252D

 23 25  0  0  0  0            999 V2000
    7.4111  -21.6208    0.0000 C   0  0
    7.4099  -22.4482    0.0000 C   0  0
    8.1247  -22.8610    0.0000 C   0  0
    8.1229  -21.2080    0.0000 C   0  0
    8.8383  -21.6172    0.0000 C   0  0
    8.8391  -22.4440    0.0000 C   0  0
    9.5544  -22.8550    0.0000 N   0  0
   10.2694  -22.4402    0.0000 C   0  0
   10.2646  -21.6102    0.0000 C   0  0
    9.5487  -21.2030    0.0000 C   0  0
    9.5444  -20.3780    0.0000 N   0  0
   10.2566  -19.9617    0.0000 C   0  0
   10.9723  -20.3759    0.0000 C   0  0
   11.6841  -19.9603    0.0000 C   0  0
   11.6801  -19.1345    0.0000 C   0  0
   10.9585  -18.7259    0.0000 C   0  0
   10.2496  -19.1439    0.0000 C   0  0
    6.6965  -21.2085    0.0000 O   0  0
    5.9821  -21.6211    0.0000 C   0  0
   12.4005  -20.3694    0.0000 C   0  0
   13.1125  -20.7792    0.0000 C   0  0
    6.6951  -22.8601    0.0000 O   0  0
    5.9810  -22.4470    0.0000 C   0  0
 10 11  1  0
  2  3  1  0
 11 12  1  0
  5  6  1  0
 12 13  2  0
  3  6  2  0
 13 14  1  0
  6  7  1  0
 14 15  2  0
  1  2  2  0
 15 16  1  0
  7  8  2  0
 16 17  2  0
 17 12  1  0
  5  4  2  0
  1 18  1  0
  8  9  1  0
 18 19  1  0
  4  1  1  0
 14 20  1  0
  9 10  2  0
 20 21  3  0
 10  5  1  0
  2 22  1  0
 22 23  1  0
M  END
> <chembl_id>
CHEMBL1092250

$$$$

  SciTegic01181116592D

 41 47  0  0  0  0            999 V2000
   28.6816  -12.7994    0.0000 C   0  0  2  0  0  0
   28.1321  -13.4108    0.0000 C   0  0
   28.3848  -14.1924    0.0000 C   0  0
   29.1915  -14.3673    0.0000 C   0  0  1  0  0  0
   29.7450  -13.7542    0.0000 C   0  0
   29.4919  -12.9663    0.0000 C   0  0
   28.4238  -12.0157    0.0000 N   0  0
   32.7372   -8.5902    0.0000 C   0  0
   33.4537   -8.1769    0.0000 C   0  0
   33.4508   -7.3463    0.0000 C   0  0
   32.7354   -6.9372    0.0000 C   0  0
   32.0224   -8.1773    0.0000 C   0  0
   32.0237   -7.3484    0.0000 C   0  0
   31.2357   -7.0911    0.0000 N   0  0
   30.7474   -7.7610    0.0000 C   0  0
   31.2337   -8.4322    0.0000 O   0  0
   29.9224   -7.7598    0.0000 N   0  0
   29.5089   -8.4736    0.0000 C   0  0
   28.6856   -8.4691    0.0000 C   0  0
   28.2721   -9.1822    0.0000 C   0  0
   28.6836   -9.8982    0.0000 C   0  0
   29.5129   -9.8968    0.0000 C   0  0
   29.9226   -9.1832    0.0000 C   0  0
   28.4300  -10.6830    0.0000 C   0  0
   28.9100  -11.3471    0.0000 N   0  0
   27.6409  -11.7608    0.0000 C   0  0
   27.6427  -10.9366    0.0000 C   0  0
   26.9310  -10.5248    0.0000 C   0  0
   26.2170  -10.9360    0.0000 N   0  0
   26.2192  -11.7633    0.0000 C   0  0
   26.9315  -12.1714    0.0000 N   0  0
   29.4442  -15.1526    0.0000 N   0  0
   28.8916  -15.7626    0.0000 C   0  0
   29.1414  -16.5451    0.0000 C   0  0
   29.9474  -16.7231    0.0000 N   0  0
   30.5032  -16.1121    0.0000 C   0  0
   30.2531  -15.3232    0.0000 C   0  0
   30.1972  -17.5094    0.0000 C   0  0
   26.9320   -9.6998    0.0000 N   0  0
   32.7370   -9.4152    0.0000 Cl  0  0
   34.1637   -6.9311    0.0000 Cl  0  0
 19 20  1  0
  9 10  1  0
 20 21  2  0
  3  4  1  0
 21 22  1  0
 10 11  2  0
 22 23  2  0
 23 18  1  0
 11 13  1  0
 21 24  1  0
 24 27  1  0
 12 13  2  0
 26  7  1  0
  7 25  1  0
 25 24  2  0
  4  5  1  0
  5  6  1  0
 26 27  2  0
  1  2  1  0
 27 28  1  0
  1  7  1  1
 28 29  2  0
 29 30  1  0
 13 14  1  0
 30 31  2  0
 31 26  1  0
 14 15  2  0
  4 32  1  1
 32 33  1  0
 15 16  1  0
 16 12  1  0
 12  8  1  0
 15 17  1  0
  1  6  1  0
 32 37  1  0
 33 34  1  0
 34 35  1  0
 35 36  1  0
 36 37  1  0
 17 18  1  0
 35 38  1  0
  8  9  2  0
 28 39  1  0
 18 19  2  0
  8 40  1  0
  2  3  1  0
 10 41  1  0
M  END
> <chembl_id>
CHEMBL1256424

$$$$

  SciTegic04201614442D

 31 34  0  0  0  0            999 V2000
    3.8942   -1.4964    0.0000 N   0  0
    5.1929   -0.7441    0.0000 C   0  0
    6.2333   -1.3420    0.0000 O   0  0
    5.1908    0.4559    0.0000 N   0  0
   -1.2964    1.4973    0.0000 N   0  0
   -2.6111    0.7486    0.0000 C   0  0
   -2.6111   -0.7486    0.0000 N   0  0
   -1.2964   -1.4973    0.0000 C   0  0
    0.0000   -0.7486    0.0000 C   0  0
    1.2964   -1.4973    0.0000 C   0  0
    2.5929   -0.7486    0.0000 C   0  0
    2.5929    0.7486    0.0000 C   0  0
    1.2964    1.4973    0.0000 C   0  0
    0.0000    0.7486    0.0000 C   0  0
   -1.2907   -2.9981    0.0000 N   0  0
   -2.5870   -3.7544    0.0000 C   0  0
   -2.5835   -5.2544    0.0000 C   0  0
   -3.8807   -6.0076    0.0000 C   0  0
   -5.1815   -5.2608    0.0000 C   0  0
   -5.1852   -3.7608    0.0000 C   0  0
   -3.8880   -3.0076    0.0000 C   0  0
   -6.4810   -6.0117    0.0000 O   0  0
   -7.7815   -5.2626    0.0000 C   0  0
   -3.8777   -7.2076    0.0000 Cl  0  0
   -9.0810   -6.0135    0.0000 C   0  0
  -10.3819   -5.2667    0.0000 C   0  0
  -11.6791   -6.0199    0.0000 C   0  0
  -11.6755   -7.5199    0.0000 C   0  0
  -10.3746   -8.2667    0.0000 C   0  0
   -9.0774   -7.5136    0.0000 C   0  0
  -12.7198   -5.4224    0.0000 F   0  0
  1  2  1  0
  2  3  2  0
  2  4  1  0
  5  6  1  0
  6  7  2  0
  7  8  1  0
  8  9  2  0
  9 10  1  0
 10 11  2  0
 11 12  1  0
 12 13  2  0
 13 14  1  0
  5 14  2  0
  9 14  1  0
 16 17  1  0
 17 18  2  0
 18 19  1  0
 19 20  2  0
 20 21  1  0
 16 21  2  0
 22 23  1  0
 19 22  1  0
 18 24  1  0
 15 16  1  0
  8 15  1  0
  1 11  1  0
 23 25  1  0
 25 26  2  0
 26 27  1  0
 27 28  2  0
 28 29  1  0
 29 30  2  0
 30 25  1  0
 27 31  1  0
M  END
> <chembl_id>
CHEMBL3633928

$$$$

  SciTegic12121614122D

 38 42  0  0  0  0            999 V2000
   -1.2913    7.5063    0.0000 C   0  0
   -2.5882    8.2616    0.0000 C   0  0
   -2.5845    9.4615    0.0000 C   0  0
   -0.2500    8.1028    0.0000 O   0  0
   -1.2959    6.0055    0.0000 N   0  0
    0.0011    5.2503    0.0000 C   0  0
   -0.0014    3.7503    0.0000 C   0  0
    1.2964    2.9980    0.0000 C   0  0
    2.5967    3.7460    0.0000 C   0  0
    2.5992    5.2460    0.0000 C   0  0
    1.3014    5.9981    0.0000 C   0  0
   -2.6111    0.7486    0.0000 C   0  0
   -1.2964    1.4973    0.0000 N   0  0
    0.0000    0.7486    0.0000 C   0  0
    0.0000   -0.7486    0.0000 C   0  0
   -1.2964   -1.4973    0.0000 C   0  0
   -2.6111   -0.7486    0.0000 N   0  0
    1.2964   -1.4973    0.0000 C   0  0
    2.5929   -0.7486    0.0000 C   0  0
    2.5929    0.7486    0.0000 C   0  0
    1.2964    1.4973    0.0000 N   0  0
    3.6321    1.3486    0.0000 O   0  0
   -3.9122    1.4966    0.0000 N   0  0
   -5.2109    0.7445    0.0000 C   0  0
   -6.5125    1.4901    0.0000 C   0  0
   -7.8091    0.7359    0.0000 C   0  0
   -7.8042   -0.7641    0.0000 C   0  0
   -6.5027   -1.5098    0.0000 C   0  0
   -5.2061   -0.7556    0.0000 C   0  0
   -9.1014   -1.5188    0.0000 N   0  0
  -10.4041   -0.7752    0.0000 C   0  0
  -11.6995   -1.5315    0.0000 C   0  0
  -11.6922   -3.0315    0.0000 N   0  0
  -10.3895   -3.7751    0.0000 C   0  0
   -9.0942   -3.0188    0.0000 C   0  0
  -12.7285   -3.6365    0.0000 C   0  0
   -6.5165    2.6901    0.0000 C   0  0
    1.2964   -2.6973    0.0000 C   0  0
  1  2  1  0
  2  3  2  0
  1  4  2  0
  1  5  1  0
  6  7  1  0
  7  8  2  0
  8  9  1  0
  9 10  2  0
 10 11  1  0
  6 11  2  0
 12 13  1  0
 13 14  2  0
 14 15  1  0
 15 16  2  0
 16 17  1  0
 12 17  2  0
 18 19  2  0
 19 20  1  0
 20 21  1  0
 14 21  1  0
 15 18  1  0
 20 22  2  0
 24 25  1  0
 25 26  2  0
 26 27  1  0
 27 28  2  0
 28 29  1  0
 24 29  2  0
 30 31  1  0
 31 32  1  0
 32 33  1  0
 33 34  1  0
 34 35  1  0
 30 35  1  0
 33 36  1  0
 27 30  1  0
 25 37  1  0
 23 24  1  0
 12 23  1  0
 18 38  1  0
  8 21  1  0
  5  6  1  0
M  END
> <chembl_id>
CHEMBL3754803

$$$$

  SciTegic02271217242D

 25 28  0  0  0  0            999 V2000
   12.2247  -25.4110    0.0000 N   0  0
   12.9412  -24.9977    0.0000 C   0  0
   12.9383  -24.1672    0.0000 N   0  0
   12.2229  -23.7580    0.0000 C   0  0
   11.5099  -24.9982    0.0000 C   0  0
   11.5112  -24.1693    0.0000 C   0  0
   10.7232  -23.9119    0.0000 N   0  0
   10.2349  -24.5818    0.0000 C   0  0
   10.7212  -25.2531    0.0000 C   0  0
   12.2211  -22.9330    0.0000 N   0  0
   12.9347  -22.5190    0.0000 C   0  0
   13.6469  -22.9329    0.0000 C   0  0
   14.3600  -22.5195    0.0000 C   0  0
   14.3587  -21.6936    0.0000 C   0  0
   13.6383  -21.2828    0.0000 C   0  0
   12.9281  -21.6986    0.0000 C   0  0
   15.0717  -21.2786    0.0000 O   0  0
   15.7876  -21.6886    0.0000 C   0  0
   15.7876  -22.5136    0.0000 C   0  0
   16.5027  -22.9235    0.0000 N   0  0
   17.2167  -22.5084    0.0000 C   0  0
   17.2111  -21.6792    0.0000 C   0  0
   16.4955  -21.2730    0.0000 C   0  0
   17.9332  -22.9174    0.0000 C   0  0
   15.0752  -22.9307    0.0000 C   0  0
 11 12  2  0
  5  1  1  0
 12 13  1  0
  2  3  1  0
 13 14  2  0
 14 15  1  0
  3  4  2  0
 15 16  2  0
 16 11  1  0
  6  7  1  0
 14 17  1  0
  7  8  1  0
 17 18  1  0
  8  9  2  0
 18 19  2  0
  9  5  1  0
 19 20  1  0
  4  6  1  0
 20 21  2  0
  4 10  1  0
 21 22  1  0
  5  6  2  0
 22 23  2  0
 23 18  1  0
 10 11  1  0
 21 24  1  0
  1  2  2  0
 13 25  1  0
M  END
> <chembl_id>
CHEMBL1923002

$$$$

  SciTegic12131613492D

 28 32  0  0  0  0            999 V2000
    0.8955    2.0810    0.0000 C   0  0
    1.7138    1.2033    0.0000 C   0  0
    2.8908    1.4370    0.0000 C   0  0
   -1.0028    1.5132    0.0000 N   0  0
   -2.3155    0.7475    0.0000 C   0  0
   -2.3155   -0.7475    0.0000 N   0  0
   -1.0028   -1.5132    0.0000 C   0  0
    0.2917    0.7475    0.0000 C   0  0
    0.2917   -0.7475    0.0000 C   0  0
    1.7138   -1.2033    0.0000 C   0  0
    2.5889    0.0182    0.0000 O   0  0
   -3.6168    1.4950    0.0000 C   0  0
   -4.9669    0.8708    0.0000 C   0  0
   -5.9732    1.9832    0.0000 N   0  0
   -5.2262    3.2840    0.0000 N   0  0
   -3.7582    2.9755    0.0000 C   0  0
   -0.9971   -3.0138    0.0000 N   0  0
   -2.2935   -3.7700    0.0000 C   0  0
   -4.6304   -4.2656    0.0000 N   0  0
   -3.6203   -3.1531    0.0000 N   0  0
   -3.8857   -5.5600    0.0000 C   0  0
   -2.4241   -5.2456    0.0000 C   0  0
   -1.4032   -6.3500    0.0000 C   0  0
   -1.8757   -7.7944    0.0000 C   0  0
   -3.3373   -8.1089    0.0000 C   0  0
   -4.3620   -6.9866    0.0000 C   0  0
   -5.5359   -7.2354    0.0000 F   0  0
   -5.8235   -4.1368    0.0000 C   0  0
  2  1  1  0
  3  2  1  0
  8  4  1  0
  4  5  2  0
  5  6  1  0
  6  7  2  0
  7  9  1  0
  8  9  2  0
  9 10  1  0
 10 11  1  0
 11  2  1  0
  2  8  1  0
  5 12  1  0
 12 13  2  0
 13 14  1  0
 14 15  1  0
 15 16  2  0
 16 12  1  0
  7 17  1  0
 17 18  1  0
 18 22  1  0
 21 19  1  0
 19 20  1  0
 20 18  2  0
 21 22  2  0
 22 23  1  0
 23 24  2  0
 24 25  1  0
 25 26  2  0
 26 21  1  0
 26 27  1  0
 19 28  1  0
M  END
> <chembl_id>
CHEMBL3758830

$$$$

  SciTegic12201615542D

 40 45  0  0  0  0            999 V2000
    1.4499    7.7742    0.0000 C   0  0
    0.5265    8.9573    0.0000 C   0  0
    0.9759   10.0700    0.0000 C   0  0
    2.6383    7.9411    0.0000 O   0  0
    0.8879    6.3826    0.0000 N   0  0
    1.8114    5.1995    0.0000 C   0  0
    1.2517    3.8078    0.0000 C   0  0
    2.1749    2.6315    0.0000 C   0  0
    3.6621    2.8384    0.0000 C   0  0
    4.2218    4.2301    0.0000 C   0  0
    3.2965    5.4106    0.0000 C   0  0
   -1.0028   -1.5132    0.0000 C   0  0
    0.2917   -0.7475    0.0000 C   0  0
    0.2917    0.7475    0.0000 C   0  0
   -1.0028    1.5132    0.0000 C   0  0
   -2.3155    0.7475    0.0000 C   0  0
   -2.3155   -0.7475    0.0000 C   0  0
    2.5889    0.0182    0.0000 C   0  0
    1.7138   -1.2033    0.0000 N   0  0
    1.7138    1.2033    0.0000 N   0  0
    4.0896    0.0290    0.0000 C   0  0
    4.9234    1.2700    0.0000 C   0  0
    4.7453   -1.3220    0.0000 N   0  0
    6.4199    1.1671    0.0000 N   0  0
    7.0791   -0.1803    0.0000 C   0  0
    6.2418   -1.4248    0.0000 C   0  0
    7.2286   -5.1568    0.0000 N   0  0
    8.5770   -4.4998    0.0000 N   0  0
    8.3688   -3.0143    0.0000 C   0  0
    6.9013   -2.7729    0.0000 C   0  0
    6.1870   -4.0774    0.0000 C   0  0
    6.9648   -6.6317    0.0000 C   0  0
    4.3957    2.3477    0.0000 N   0  0
    5.5535   -7.1424    0.0000 C   0  0
    5.2893   -8.6198    0.0000 N   0  0
    3.8795   -9.1323    0.0000 C   0  0
    3.6185  -10.6094    0.0000 C   0  0
    4.7671  -11.5741    0.0000 O   0  0
    6.1769  -11.0617    0.0000 C   0  0
    6.4380   -9.5846    0.0000 C   0  0
  1  2  1  0
  2  3  2  0
  1  4  2  0
  1  5  1  0
  6  7  1  0
  7  8  2  0
  8  9  1  0
  9 10  2  0
 10 11  1  0
  6 11  2  0
 12 13  1  0
 13 14  2  0
 14 15  1  0
 15 16  2  0
 16 17  1  0
 12 17  2  0
 18 19  2  0
 18 20  1  0
 13 19  1  0
 14 20  1  0
 21 22  1  0
 21 23  2  0
 22 24  2  0
 24 25  1  0
 25 26  2  0
 23 26  1  0
 27 28  1  0
 28 29  2  0
 29 30  1  0
 30 31  2  0
 27 31  1  0
 27 32  1  0
 26 30  1  0
 22 33  1  0
 18 21  1  0
  8 20  1  0
  5  6  1  0
 32 34  1  0
 34 35  1  0
 35 36  1  0
 35 40  1  0
 36 37  1  0
 37 38  1  0
 38 39  1  0
 39 40  1  0
M  END
> <chembl_id>
CHEMBL3814824

$$$$

  SciTegic12171313052D

 36 40  0  0  0  0            999 V2000
   20.8617  -10.0993    0.0000 C   0  0
   20.8606  -10.9188    0.0000 C   0  0
   21.5686  -11.3278    0.0000 C   0  0
   22.2783  -10.9184    0.0000 C   0  0
   22.2755  -10.0957    0.0000 C   0  0
   21.5668   -9.6904    0.0000 C   0  0
   21.5644   -8.8732    0.0000 N   0  0
   22.2709   -8.4625    0.0000 C   0  0
   22.9813   -8.8734    0.0000 N   0  0
   22.9714   -7.2391    0.0000 C   0  0
   22.2683   -7.6514    0.0000 N   0  0
   23.6853   -7.6454    0.0000 C   0  0
   23.6861   -8.4651    0.0000 C   0  0
   24.3924   -8.8720    0.0000 N   0  0
   25.1026   -8.4637    0.0000 C   0  0
   25.1018   -7.6440    0.0000 C   0  0
   24.3909   -7.2325    0.0000 N   0  0
   24.3936   -9.6865    0.0000 C   0  0
   23.6841  -10.0942    0.0000 C   0  0
   23.6834  -10.9106    0.0000 C   0  0
   24.3915  -11.3204    0.0000 C   0  0
   25.1017  -10.9077    0.0000 C   0  0
   25.0989  -10.0926    0.0000 C   0  0
   25.8101   -8.8726    0.0000 O   0  0
   24.3922  -12.1375    0.0000 N   0  0
   25.1003  -12.5455    0.0000 C   0  0
   25.1010  -13.3627    0.0000 O   0  0
   25.8076  -12.1363    0.0000 C   0  0
   26.5157  -12.5442    0.0000 C   0  0
   21.5690  -12.1401    0.0000 N   0  0
   20.8594  -12.5473    0.0000 C   0  0
   20.8572  -13.3609    0.0000 C   0  0
   21.5630  -13.7735    0.0000 N   0  0
   22.2726  -13.3663    0.0000 C   0  0
   22.2764  -12.5465    0.0000 C   0  0
   21.5597  -14.5906    0.0000 C   0  0
  1  2  2  0
  2  3  1  0
  3  4  2  0
  4  5  1  0
  5  6  2  0
  6  1  1  0
  6  7  1  0
  7  8  1  0
  8  9  2  0
  9 13  1  0
 12 10  1  0
 10 11  2  0
 11  8  1  0
 12 13  2  0
 12 17  1  0
 13 14  1  0
 14 15  1  0
 15 16  1  0
 16 17  2  0
 18 19  2  0
 19 20  1  0
 20 21  2  0
 21 22  1  0
 22 23  2  0
 23 18  1  0
 14 18  1  0
 15 24  2  0
 21 25  1  0
 25 26  1  0
 26 27  2  0
 26 28  1  0
 28 29  2  0
 30 31  1  0
 30 35  1  0
 31 32  1  0
 32 33  1  0
 33 34  1  0
 34 35  1  0
  3 30  1  0
 33 36  1  0
M  END
> <chembl_id>
CHEMBL2437461

$$$$

  SciTegic12201615542D

 41 46  0  0  0  0            999 V2000
    1.4499    7.7742    0.0000 C   0  0
    0.5265    8.9573    0.0000 C   0  0
    0.9759   10.0700    0.0000 C   0  0
    2.6383    7.9411    0.0000 O   0  0
    0.8879    6.3826    0.0000 N   0  0
    1.8114    5.1995    0.0000 C   0  0
    1.2517    3.8078    0.0000 C   0  0
    2.1749    2.6315    0.0000 C   0  0
    3.6621    2.8384    0.0000 C   0  0
    4.2218    4.2301    0.0000 C   0  0
    3.2965    5.4106    0.0000 C   0  0
   -1.0028   -1.5132    0.0000 C   0  0
    0.2917   -0.7475    0.0000 C   0  0
    0.2917    0.7475    0.0000 C   0  0
   -1.0028    1.5132    0.0000 C   0  0
   -2.3155    0.7475    0.0000 C   0  0
   -2.3155   -0.7475    0.0000 C   0  0
    2.5889    0.0182    0.0000 C   0  0
    1.7138   -1.2033    0.0000 N   0  0
    1.7138    1.2033    0.0000 N   0  0
    4.0896    0.0290    0.0000 C   0  0
    4.9234    1.2700    0.0000 C   0  0
    4.7453   -1.3220    0.0000 N   0  0
    6.4199    1.1671    0.0000 N   0  0
    7.0791   -0.1803    0.0000 C   0  0
    6.2418   -1.4248    0.0000 C   0  0
    7.2286   -5.1568    0.0000 N   0  0
    8.5770   -4.4998    0.0000 N   0  0
    8.3688   -3.0143    0.0000 C   0  0
    6.9013   -2.7729    0.0000 C   0  0
    6.1870   -4.0774    0.0000 C   0  0
    6.9674   -6.6347    0.0000 C   0  0
    4.3957    2.3477    0.0000 N   0  0
    8.0374   -7.6789    0.0000 C   0  0
    7.6659   -9.1322    0.0000 C   0  0
    6.2216   -9.5371    0.0000 N   0  0
    5.1488   -8.4888    0.0000 C   0  0
    5.5202   -7.0355    0.0000 C   0  0
    5.8470  -10.9905    0.0000 C   0  0
    4.6911  -11.3128    0.0000 C   0  0
    6.7038  -11.8306    0.0000 C   0  0
  1  2  1  0
  2  3  2  0
  1  4  2  0
  1  5  1  0
  6  7  1  0
  7  8  2  0
  8  9  1  0
  9 10  2  0
 10 11  1  0
  6 11  2  0
 12 13  1  0
 13 14  2  0
 14 15  1  0
 15 16  2  0
 16 17  1  0
 12 17  2  0
 18 19  2  0
 18 20  1  0
 13 19  1  0
 14 20  1  0
 21 22  1  0
 21 23  2  0
 22 24  2  0
 24 25  1  0
 25 26  2  0
 23 26  1  0
 27 28  1  0
 28 29  2  0
 29 30  1  0
 30 31  2  0
 27 31  1  0
 27 32  1  0
 26 30  1  0
 22 33  1  0
 18 21  1  0
  8 20  1  0
  5  6  1  0
 32 34  1  0
 32 38  1  0
 34 35  1  0
 35 36  1  0
 36 37  1  0
 37 38  1  0
 36 39  1  0
 39 40  1  0
 39 41  1  0
M  END
> <chembl_id>
CHEMBL3814884

$$$$

  SciTegic04301217312D

 22 24  0  0  0  0            999 V2000
   -4.6452   -3.5984    0.0000 C   0  0
   -4.6463   -4.4253    0.0000 C   0  0
   -3.9318   -4.8380    0.0000 C   0  0
   -3.2157   -4.4249    0.0000 C   0  0
   -3.2185   -3.5947    0.0000 C   0  0
   -3.9336   -3.1857    0.0000 C   0  0
   -5.3607   -4.8371    0.0000 Br  0  0
   -2.5009   -4.8360    0.0000 N   0  0
   -1.7874   -4.4226    0.0000 C   0  0
   -1.0726   -4.8338    0.0000 C   0  0
   -1.7887   -3.5980    0.0000 O   0  0
   -1.0760   -5.6568    0.0000 C   0  0
   -0.3620   -6.0679    0.0000 N   0  0
   -0.3660   -4.4182    0.0000 C   0  0
    0.3484   -4.8256    0.0000 C   0  0
    0.3514   -5.6539    0.0000 C   0  0
    1.0691   -6.0637    0.0000 C   0  0
    1.7844   -5.6464    0.0000 C   0  0
    1.7774   -4.8149    0.0000 C   0  0
    1.0591   -4.4088    0.0000 C   0  0
   -1.7908   -6.0681    0.0000 O   0  0
   -0.3716   -3.5936    0.0000 O   0  0
  9 11  2  0
  5  6  2  0
 10 12  1  0
  6  1  1  0
 12 13  1  0
 13 16  1  0
  1  2  2  0
 15 14  1  0
 14 10  2  0
  2  7  1  0
  3  4  2  0
 15 16  2  0
  4  8  1  0
 16 17  1  0
 17 18  2  0
  8  9  1  0
 18 19  1  0
  4  5  1  0
 19 20  2  0
 20 15  1  0
  9 10  1  0
 12 21  2  0
  2  3  1  0
 14 22  1  0
M  END
> <chembl_id>
CHEMBL1944926

$$$$

  SciTegic10311316322D

 32 36  0  0  0  0            999 V2000
   17.2834  -27.7680    0.0000 N   0  0
   17.2823  -28.5875    0.0000 C   0  0
   17.9903  -28.9965    0.0000 N   0  0
   17.9885  -27.3591    0.0000 C   0  0
   18.6971  -27.7644    0.0000 C   0  0
   18.7005  -28.5896    0.0000 C   0  0
   19.4129  -28.9970    0.0000 N   0  0
   20.1265  -28.5837    0.0000 C   0  0  1  0  0  0
   20.1231  -27.7585    0.0000 C   0  0
   19.4061  -27.3466    0.0000 N   0  0
   19.4016  -26.5294    0.0000 C   0  0
   20.8295  -27.3477    0.0000 O   0  0
   20.8353  -28.9904    0.0000 C   0  0
   21.5419  -28.5798    0.0000 C   0  0
   16.5769  -28.9988    0.0000 N   0  0
   15.8307  -28.6659    0.0000 C   0  0
   15.2834  -29.2727    0.0000 C   0  0
   15.6914  -29.9808    0.0000 N   0  0
   16.4908  -29.8114    0.0000 C   0  0
   17.0983  -30.3558    0.0000 C   0  0
   16.9263  -31.1558    0.0000 C   0  0
   17.5324  -31.7028    0.0000 C   0  0
   18.3107  -31.4510    0.0000 C   0  0
   18.4795  -30.6471    0.0000 C   0  0
   17.8721  -30.1036    0.0000 C   0  0
   19.4178  -29.8165    0.0000 C   0  0
   18.7580  -30.2986    0.0000 C   0  0
   19.0126  -31.0751    0.0000 C   0  0
   19.8299  -31.0729    0.0000 N   0  0
   20.0802  -30.2950    0.0000 N   0  0
   18.9183  -31.9974    0.0000 F   0  0
   20.3121  -31.7327    0.0000 C   0  0
  1  2  2  0
  2  3  1  0
  3  6  2  0
  5  4  2  0
  4  1  1  0
  5  6  1  0
  5 10  1  0
  6  7  1  0
  7  8  1  0
  8  9  1  0
  9 10  1  0
 10 11  1  0
  9 12  2  0
  8 13  1  1
 13 14  1  0
 15 16  1  0
 16 17  2  0
 17 18  1  0
 18 19  2  0
 19 15  1  0
  2 15  1  0
 20 21  2  0
 21 22  1  0
 22 23  2  0
 23 24  1  0
 24 25  2  0
 25 20  1  0
 19 20  1  0
 26 27  1  0
 27 28  2  0
 28 29  1  0
 29 30  1  0
 30 26  2  0
  7 26  1  0
 23 31  1  0
 29 32  1  0
M  END
> <chembl_id>
CHEMBL2402081

$$$$

  SciTegic12161615052D

 31 34  0  0  0  0            999 V2000
    1.2990   -0.7500    0.0000 C   0  0
    1.2990    0.7500    0.0000 C   0  0
    0.0000    1.5000    0.0000 C   0  0
   -1.2990    0.7500    0.0000 C   0  0
   -1.2990   -0.7500    0.0000 C   0  0
    0.0000   -1.5000    0.0000 N   0  0
    2.5972    1.5031    0.0000 C   0  0
    3.6375    0.9049    0.0000 O   0  0
    2.5951    3.0039    0.0000 N   0  0
    2.3383   -1.3500    0.0000 O   0  0
    3.8933    3.7570    0.0000 C   0  0
    3.8933    5.2571    0.0000 C   0  0
    5.1924    6.0071    0.0000 C   0  0
    6.4914    5.2571    0.0000 C   0  0
    6.4915    3.7571    0.0000 C   0  0
    5.1925    3.0071    0.0000 C   0  0
    7.7911    6.0075    0.0000 N   0  0
    7.7935    7.5076    0.0000 C   0  0
    9.0937    8.2556    0.0000 C   0  0
   10.3916    7.5036    0.0000 N   0  0
   10.3893    6.0036    0.0000 C   0  0
    9.0891    5.2556    0.0000 C   0  0
   11.4318    8.1019    0.0000 C   0  0
   -0.0031    3.0008    0.0000 N   0  0
   -1.3039    3.7494    0.0000 C   0  0
   -1.3092    5.2494    0.0000 C   0  0
   -2.6108    5.9949    0.0000 C   0  0
   -3.9073    5.2404    0.0000 C   0  0
   -3.9021    3.7404    0.0000 C   0  0
   -2.6005    2.9949    0.0000 C   0  0
   -4.9392    3.1368    0.0000 Cl  0  0
  1  2  1  0
  2  3  2  0
  3  4  1  0
  4  5  2  0
  5  6  1  0
  1  6  1  0
  7  8  2  0
  7  9  1  0
  2  7  1  0
  1 10  2  0
 11 12  1  0
 12 13  2  0
 13 14  1  0
 14 15  2  0
 15 16  1  0
 11 16  2  0
 17 18  1  0
 18 19  1  0
 19 20  1  0
 20 21  1  0
 21 22  1  0
 17 22  1  0
 20 23  1  0
 14 17  1  0
  9 11  1  0
  3 24  1  0
 24 25  1  0
 25 26  2  0
 26 27  1  0
 27 28  2  0
 28 29  1  0
 29 30  2  0
 30 25  1  0
 29 31  1  0
M  END
> <chembl_id>
CHEMBL3781439

$$$$

  SciTegic01061111512D

 24 27  0  0  0  0            999 V2000
    4.8014  -10.8989    0.0000 N   0  0
    4.3846  -10.1821    0.0000 C   0  0
    3.5599  -10.1846    0.0000 C   0  0
    3.1458  -10.9023    0.0000 N   0  0
    3.5626  -11.6191    0.0000 C   0  0
    4.3936  -11.6183    0.0000 C   0  0
    5.6205  -10.8931    0.0000 C   0  0
    6.0358  -11.6073    0.0000 N   0  0
    6.8575  -11.6049    0.0000 C   0  0
    7.2701  -10.8898    0.0000 N   0  0
    2.3240  -10.9023    0.0000 C   0  0
    1.9114  -10.1865    0.0000 C   0  0
    1.0898  -10.1859    0.0000 C   0  0
    0.6745  -10.8994    0.0000 C   0  0
    1.0870  -11.6152    0.0000 C   0  0
    1.9149  -11.6175    0.0000 C   0  0
    6.0269  -10.1764    0.0000 C   0  0
    6.8517  -10.1736    0.0000 C   0  0
    7.1039   -9.3884    0.0000 N   0  0
    6.4350   -8.9057    0.0000 N   0  0
    5.7695   -9.3929    0.0000 C   0  0
    4.9838   -9.1404    0.0000 Br  0  0
    2.3246   -9.4722    0.0000 O   0  0
    3.1498   -9.4728    0.0000 C   0  0
  3  4  1  0
  4  5  1  0
  5  6  1  0
  7  8  2  0
  1  2  1  0
 11 16  2  0
 12 13  2  0
 13 14  1  0
 14 15  2  0
 15 16  1  0
  4 11  1  0
 17 18  2  0
  1  6  1  0
  2  3  1  0
  7 17  1  0
  8  9  1  0
  9 10  2  0
 18 19  1  0
 19 20  1  0
 20 21  2  0
 21 17  1  0
 10 18  1  0
 21 22  1  0
  1  7  1  0
 12 23  1  0
 11 12  1  0
 23 24  1  0
M  END
> <chembl_id>
CHEMBL1254209

$$$$

  SciTegic04151115542D

 29 31  0  0  0  0            999 V2000
   12.6117  -18.9245    0.0000 C   0  0
   12.6105  -19.7521    0.0000 C   0  0
   13.3234  -20.1651    0.0000 C   0  0
   13.3214  -18.5118    0.0000 C   0  0
   14.0396  -18.9205    0.0000 C   0  0
   14.0407  -19.7480    0.0000 C   0  0
   14.7566  -20.1589    0.0000 C   0  0
   15.4719  -19.7437    0.0000 C   0  0
   15.4669  -18.9131    0.0000 N   0  0
   14.7504  -18.5058    0.0000 C   0  0
   14.7586  -20.9839    0.0000 C   0  0
   14.7591  -21.8091    0.0000 N   0  0
   14.7457  -17.6808    0.0000 N   0  0
   15.4579  -17.2644    0.0000 C   0  0
   16.1701  -17.6764    0.0000 C   0  0
   16.8818  -17.2606    0.0000 C   0  0
   16.8776  -16.4348    0.0000 C   0  0
   16.1558  -16.0264    0.0000 C   0  0
   15.4471  -16.4447    0.0000 C   0  0
   17.5983  -17.6694    0.0000 Br  0  0
   11.8969  -18.5127    0.0000 N   0  0
   11.1828  -18.9257    0.0000 C   0  0
   10.4680  -18.5139    0.0000 C   0  0
   11.1835  -19.7507    0.0000 O   0  0
    9.7539  -18.9269    0.0000 C   0  0
    9.0390  -18.5151    0.0000 C   0  0
    8.3249  -18.9281    0.0000 N   0  0
    7.6101  -18.5162    0.0000 C   0  0
    8.3257  -19.7531    0.0000 C   0  0
 13 14  1  0
  6  7  1  0
 14 15  2  0
  1  2  2  0
 15 16  1  0
  7  8  2  0
 16 17  2  0
  5  4  2  0
 17 18  1  0
  8  9  1  0
 18 19  2  0
 19 14  1  0
  4  1  1  0
 16 20  1  0
  9 10  2  0
  1 21  1  0
 10  5  1  0
 21 22  1  0
 22 23  1  0
  7 11  1  0
 22 24  2  0
  2  3  1  0
 23 25  2  0
 11 12  3  0
 25 26  1  0
  5  6  1  0
 26 27  1  0
 10 13  1  0
 27 28  1  0
  3  6  2  0
 27 29  1  0
M  END
> <chembl_id>
CHEMBL1641990

$$$$

  SciTegic01161211252D

 27 29  0  0  0  0            999 V2000
    8.5194  -12.6375    0.0000 C   0  0
    8.5182  -13.4648    0.0000 C   0  0
    9.2331  -13.8777    0.0000 C   0  0
    9.2313  -12.2247    0.0000 C   0  0
    9.9466  -12.6338    0.0000 C   0  0
    9.9474  -13.4607    0.0000 C   0  0
   10.6627  -13.8716    0.0000 N   0  0
   11.3777  -13.4569    0.0000 C   0  0
   11.3730  -12.6269    0.0000 N   0  0
   10.6571  -12.2197    0.0000 C   0  0
   10.6527  -11.3947    0.0000 N   0  0
   11.3650  -10.9784    0.0000 C   0  0
   12.0806  -11.3926    0.0000 C   0  0
   12.7924  -10.9770    0.0000 C   0  0
   12.7885  -10.1511    0.0000 C   0  0
   12.0668   -9.7426    0.0000 C   0  0
   11.3580  -10.1606    0.0000 C   0  0
   13.5089  -11.3860    0.0000 Br  0  0
    7.8048  -12.2251    0.0000 N   0  0
    7.0905  -12.6378    0.0000 C   0  0
    6.3759  -12.2255    0.0000 C   0  0
    7.0907  -13.4628    0.0000 O   0  0
    5.6615  -12.6381    0.0000 C   0  0
    4.9469  -12.2258    0.0000 C   0  0
    4.2326  -12.6385    0.0000 N   0  0
    3.5180  -12.2262    0.0000 C   0  0
    4.2328  -13.4635    0.0000 C   0  0
 12 13  2  0
  3  6  2  0
 13 14  1  0
  6  7  1  0
 14 15  2  0
  1  2  2  0
 15 16  1  0
  7  8  2  0
 16 17  2  0
 17 12  1  0
  5  4  2  0
 14 18  1  0
  8  9  1  0
  1 19  1  0
  4  1  1  0
 19 20  1  0
  9 10  2  0
 20 21  1  0
 10  5  1  0
 20 22  2  0
 21 23  1  0
 10 11  1  0
 23 24  1  0
  2  3  1  0
 24 25  1  0
 11 12  1  0
 25 26  1  0
  5  6  1  0
 25 27  1  0
M  END
> <chembl_id>
CHEMBL1088901

$$$$

  SciTegic09081514182D

 32 33  0  0  0  0            999 V2000
    1.2990   -0.7500    0.0000 C   0  0
    1.2990    0.7500    0.0000 C   0  0
    0.0000    1.5000    0.0000 C   0  0
   -1.2990    0.7500    0.0000 C   0  0
   -1.2990   -0.7500    0.0000 C   0  0
    0.0000   -1.5000    0.0000 C   0  0
   -2.5972   -1.5031    0.0000 C   0  0
   -2.5951   -3.0039    0.0000 C   0  0
   -3.8933   -3.7570    0.0000 C   0  0
   -3.8912   -5.2578    0.0000 C   0  0
   -4.9336   -3.1588    0.0000 O   0  0
   -5.1894   -6.0109    0.0000 C   0  0
   -5.1872   -7.5117    0.0000 C   0  0
   -6.2296   -5.4127    0.0000 O   0  0
   -6.4854   -8.2648    0.0000 C   0  0
   -6.4833   -9.7657    0.0000 C   0  0
   -7.7797  -10.5203    0.0000 C   0  0
   -7.7745  -12.0202    0.0000 C   0  0
   -6.4729  -12.7657    0.0000 C   0  0
   -5.1764  -12.0112    0.0000 C   0  0
   -5.1816  -10.5113    0.0000 C   0  0
    2.5973   -1.5031    0.0000 O   0  0
    2.3383    1.3500    0.0000 O   0  0
   -6.4687  -13.9657    0.0000 O   0  0
   -3.8726  -12.7545    0.0000 O   0  0
   -2.8363  -12.1494    0.0000 C   0  0
   -2.5916   -6.0087    0.0000 C   0  0
   -2.5912   -7.5095    0.0000 C   0  0
   -1.2916   -8.2603    0.0000 C   0  0
   -1.2913   -9.4603    0.0000 O   0  0
   -0.2524   -7.6603    0.0000 O   0  0
    2.5956   -2.7031    0.0000 C   0  0
  1  2  2  0
  2  3  1  0
  3  4  2  0
  4  5  1  0
  5  6  2  0
  6  1  1  0
  5  7  1  0
  7  8  2  0
  8  9  1  0
  9 10  2  0
  9 11  1  0
 10 12  1  0
 12 13  1  0
 12 14  2  0
 13 15  2  0
 15 16  1  0
 16 17  2  0
 17 18  1  0
 18 19  2  0
 19 20  1  0
 20 21  2  0
 21 16  1  0
  1 22  1  0
  2 23  1  0
 19 24  1  0
 20 25  1  0
 25 26  1  0
 10 27  1  0
 27 28  1  0
 28 29  1  0
 29 30  2  0
 29 31  1  0
 22 32  1  0
M  END
> <chembl_id>
CHEMBL3402852

$$$$

  SciTegic09261414462D

 30 32  0  0  0  0            999 V2000
   20.6689  -16.6519    0.0000 N   0  0
   21.3785  -16.2425    0.0000 C   0  0
   21.3757  -15.4198    0.0000 N   0  0
   20.6671  -15.0146    0.0000 C   0  0
   19.9608  -16.2430    0.0000 C   0  0
   19.9621  -15.4264    0.0000 C   0  0
   19.1859  -15.1729    0.0000 C   0  0
   18.7049  -15.8328    0.0000 C   0  0
   19.1839  -16.4940    0.0000 S   0  0
   20.6633  -14.1974    0.0000 N   0  0
   21.3692  -13.7855    0.0000 C   0  0
   22.0766  -14.1956    0.0000 C   0  0
   22.7819  -13.7845    0.0000 C   0  0
   22.7786  -12.9664    0.0000 C   0  0
   22.0640  -12.5613    0.0000 C   0  0
   21.3616  -12.9748    0.0000 C   0  0
   17.8877  -15.8316    0.0000 N   0  0
   17.4801  -15.1233    0.0000 C   0  0
   16.6629  -15.1221    0.0000 C   0  0
   17.8897  -14.4162    0.0000 O   0  0
   23.4838  -12.5536    0.0000 F   0  0
   23.4913  -14.1902    0.0000 Cl  0  0
   16.2554  -14.4138    0.0000 N   0  0
   15.4382  -14.4127    0.0000 C   0  0
   16.6650  -13.7067    0.0000 C   0  0
   15.0285  -15.1198    0.0000 C   0  0
   14.2114  -15.1186    0.0000 C   0  0
   13.8017  -15.8257    0.0000 N   0  0
   12.9845  -15.8245    0.0000 C   0  0
   14.2093  -16.5340    0.0000 C   0  0
  5  1  1  0
  1  2  2  0
  2  3  1  0
  3  4  2  0
  4  6  1  0
  5  6  2  0
  6  7  1  0
  7  8  2  0
  8  9  1  0
  9  5  1  0
  4 10  1  0
 10 11  1  0
 11 12  2  0
 12 13  1  0
 13 14  2  0
 14 15  1  0
 15 16  2  0
 16 11  1  0
  8 17  1  0
 17 18  1  0
 18 19  1  0
 18 20  2  0
 14 21  1  0
 13 22  1  0
 19 23  1  0
 23 24  1  0
 23 25  1  0
 24 26  1  0
 26 27  1  0
 27 28  1  0
 28 29  1  0
 28 30  1  0
M  END
> <chembl_id>
CHEMBL3233763

$$$$

  SciTegic12171313022D

 31 34  0  0  0  0            999 V2000
   10.5560   -4.1850    0.0000 C   0  0
   10.5549   -5.0045    0.0000 C   0  0
   11.2629   -5.4135    0.0000 N   0  0
   11.9726   -5.0040    0.0000 C   0  0
   11.9698   -4.1814    0.0000 N   0  0
   11.2611   -3.7761    0.0000 C   0  0
    9.8482   -3.7765    0.0000 Cl  0  0
   11.2592   -2.9590    0.0000 C   0  0
   11.9189   -2.4767    0.0000 C   0  0
   11.6640   -1.7002    0.0000 N   0  0
   10.5967   -2.4806    0.0000 C   0  0
   10.8496   -1.7035    0.0000 C   0  0
   10.3036   -1.0980    0.0000 C   0  0
    9.5046   -1.2683    0.0000 C   0  0
    9.2545   -2.0496    0.0000 C   0  0
    9.8022   -2.6518    0.0000 C   0  0
   12.6809   -5.4115    0.0000 N   0  0
   13.3880   -5.0018    0.0000 C   0  0
   14.0930   -5.4097    0.0000 C   0  0
   14.7996   -5.0007    0.0000 C   0  0
   13.3818   -4.1867    0.0000 C   0  0
   14.0931   -6.2269    0.0000 O   0  0
   13.3855   -6.6356    0.0000 C   0  0
   14.0816   -3.7745    0.0000 C   0  0
   14.7949   -4.1835    0.0000 C   0  0
   14.0768   -2.9574    0.0000 N   0  0
   13.3667   -2.5529    0.0000 C   0  0
   13.3619   -1.7357    0.0000 C   0  0
   12.6614   -2.9657    0.0000 O   0  0
   14.0672   -1.3230    0.0000 C   0  0
   14.7720   -0.9129    0.0000 N   0  0
  1  2  2  0
  2  3  1  0
  3  4  2  0
  4  5  1  0
  5  6  2  0
  6  1  1  0
  1  7  1  0
  8  9  2  0
  9 10  1  0
 10 12  1  0
 11  8  1  0
  6  8  1  0
 11 12  2  0
 12 13  1  0
 13 14  2  0
 14 15  1  0
 15 16  2  0
 16 11  1  0
  4 17  1  0
 17 18  1  0
 18 19  2  0
 19 20  1  0
 20 25  2  0
 24 21  2  0
 21 18  1  0
 19 22  1  0
 22 23  1  0
 24 25  1  0
 24 26  1  0
 26 27  1  0
 27 28  1  0
 27 29  2  0
 28 30  1  0
 30 31  3  0
M  END
> <chembl_id>
CHEMBL2426285

$$$$

  CDK    12/20/10,14:45

 37 41  0  0  0  0  0  0  0  0999 V2000
    7.9333  -15.4917    0.0000 S   0  0  0  0  0  0  0  0  0  0  0  0
   12.6333  -14.2750    0.0000 C   0  0  0  0  0  0  0  0  0  0  0  0
   11.5750  -15.2292    0.0000 C   0  0  0  0  0  0  0  0  0  0  0  0
   13.7083  -13.4875    0.0000 C   0  0  0  0  0  0  0  0  0  0  0  0
   13.9625  -14.2750    0.0000 C   0  0  0  0  0  0  0  0  0  0  0  0
   12.0583  -15.9000    0.0000 C   0  0  0  0  0  0  0  0  0  0  0  0
   13.3000  -14.7542    0.0000 N   0  0  0  0  0  0  0  0  0  0  0  0
   11.8292  -14.4458    0.0000 C   0  0  0  0  0  0  0  0  0  0  0  0
   12.8833  -13.4875    0.0000 C   0  0  0  0  0  0  0  0  0  0  0  0
   11.5750  -16.5667    0.0000 N   0  0  0  0  0  0  0  0  0  0  0  0
   10.7875  -15.4875    0.0000 C   0  0  0  0  0  0  0  0  0  0  0  0
   10.7875  -16.3125    0.0000 C   0  0  0  0  0  0  0  0  0  0  0  0
    8.6458  -15.0792    0.0000 N   0  0  0  0  0  0  0  0  0  0  0  0
   14.2625  -12.8708    0.0000 C   0  0  0  0  0  0  0  0  0  0  0  0
    7.5208  -16.2042    0.0000 O   0  0  0  0  0  0  0  0  0  0  0  0
    8.3458  -16.2042    0.0000 O   0  0  0  0  0  0  0  0  0  0  0  0
    7.2167  -15.0792    0.0000 C   0  0  0  0  0  0  0  0  0  0  0  0
   10.0708  -15.0792    0.0000 C   0  0  0  0  0  0  0  0  0  0  0  0
   12.8833  -15.9000    0.0000 O   0  0  0  0  0  0  0  0  0  0  0  0
    9.3625  -15.4917    0.0000 C   0  0  0  0  0  0  0  0  0  0  0  0
   10.0750  -16.7292    0.0000 C   0  0  0  0  0  0  0  0  0  0  0  0
   14.0083  -12.0875    0.0000 O   0  0  0  0  0  0  0  0  0  0  0  0
   14.7667  -14.4500    0.0000 C   0  0  0  0  0  0  0  0  0  0  0  0
   12.4708  -12.7750    0.0000 C   0  0  0  0  0  0  0  0  0  0  0  0
    9.3583  -16.3167    0.0000 C   0  0  0  0  0  0  0  0  0  0  0  0
   10.4125  -12.0542    0.0000 N   0  0  0  0  0  0  0  0  0  0  0  0
   15.0708  -13.0500    0.0000 C   0  0  0  0  0  0  0  0  0  0  0  0
   11.6458  -12.7708    0.0000 C   0  0  0  0  0  0  0  0  0  0  0  0
   15.3250  -13.8375    0.0000 C   0  0  0  0  0  0  0  0  0  0  0  0
   11.2375  -12.0583    0.0000 C   0  0  0  0  0  0  0  0  0  0  0  0
    6.5042  -15.4917    0.0000 C   0  0  0  0  0  0  0  0  0  0  0  0
    7.2167  -14.2542    0.0000 C   0  0  0  0  0  0  0  0  0  0  0  0
   10.0000  -11.3417    0.0000 C   0  0  0  0  0  0  0  0  0  0  0  0
    9.9958  -12.7708    0.0000 C   0  0  0  0  0  0  0  0  0  0  0  0
    6.5042  -13.8417    0.0000 C   0  0  0  0  0  0  0  0  0  0  0  0
    5.7917  -15.0833    0.0000 C   0  0  0  0  0  0  0  0  0  0  0  0
    5.7875  -14.2542    0.0000 C   0  0  0  0  0  0  0  0  0  0  0  0
  2  8  1  0  0  0  0 
  3 11  1  0  0  0  0 
  4  9  1  0  0  0  0 
  5  7  1  0  0  0  0 
  6  3  1  0  0  0  0 
  7  2  1  0  0  0  0 
  8  3  2  0  0  0  0 
  9  2  2  0  0  0  0 
 10 12  1  0  0  0  0 
 11 18  2  0  0  0  0 
 12 11  1  0  0  0  0 
 13  1  1  0  0  0  0 
 14  4  1  0  0  0  0 
 15  1  2  0  0  0  0 
 16  1  2  0  0  0  0 
 17  1  1  0  0  0  0 
 18 20  1  0  0  0  0 
 19  6  2  0  0  0  0 
 20 13  1  0  0  0  0 
 21 25  1  0  0  0  0 
 22 14  2  0  0  0  0 
 23  5  1  0  0  0  0 
 24  9  1  0  0  0  0 
 25 20  2  0  0  0  0 
 26 30  1  0  0  0  0 
 27 14  1  0  0  0  0 
 28 24  1  0  0  0  0 
 29 23  1  0  0  0  0 
 30 28  1  0  0  0  0 
 31 17  1  0  0  0  0 
 32 17  2  0  0  0  0 
 33 26  1  0  0  0  0 
 34 26  1  0  0  0  0 
 35 32  1  0  0  0  0 
 36 31  2  0  0  0  0 
 37 36  1  0  0  0  0 
 37 35  2  0  0  0  0 
 12 21  2  0  0  0  0 
  6 10  1  0  0  0  0 
  5  4  2  0  0  0  0 
 27 29  1  0  0  0  0 
M  END
> <chembl_id>
CHEMBL1215346

$$$$

  SciTegic12161615062D

 33 36  0  0  0  0            999 V2000
    1.2990   -0.7500    0.0000 C   0  0
    1.2990    0.7500    0.0000 C   0  0
    0.0000    1.5000    0.0000 C   0  0
   -1.2990    0.7500    0.0000 C   0  0
   -1.2990   -0.7500    0.0000 C   0  0
    0.0000   -1.5000    0.0000 N   0  0
    2.5972    1.5031    0.0000 C   0  0
    3.6375    0.9049    0.0000 O   0  0
    2.5951    3.0039    0.0000 N   0  0
    2.3383   -1.3500    0.0000 O   0  0
   -0.0031    3.0008    0.0000 N   0  0
   -1.3039    3.7494    0.0000 C   0  0
   -1.3092    5.2494    0.0000 C   0  0
   -2.6108    5.9949    0.0000 C   0  0
   -3.9073    5.2404    0.0000 C   0  0
   -3.9021    3.7404    0.0000 C   0  0
   -2.6005    2.9949    0.0000 C   0  0
   -0.0136    6.0070    0.0000 O   0  0
   -0.0195    7.2070    0.0000 C   0  0
    3.8933    3.7570    0.0000 C   0  0
    3.8933    5.2571    0.0000 C   0  0
    5.1924    6.0071    0.0000 C   0  0
    6.4914    5.2571    0.0000 C   0  0
    6.4915    3.7571    0.0000 C   0  0
    5.1925    3.0071    0.0000 C   0  0
    7.7911    6.0075    0.0000 N   0  0
    7.7935    7.5076    0.0000 C   0  0
    9.0937    8.2556    0.0000 C   0  0
   10.3916    7.5036    0.0000 S   0  0
   10.3893    6.0036    0.0000 C   0  0
    9.0891    5.2556    0.0000 C   0  0
   10.3651    8.7033    0.0000 O   0  0
   11.4155    6.8777    0.0000 O   0  0
  1  2  1  0
  2  3  2  0
  3  4  1  0
  4  5  2  0
  5  6  1  0
  1  6  1  0
  7  8  2  0
  7  9  1  0
  2  7  1  0
  1 10  2  0
  3 11  1  0
 11 12  1  0
 12 13  2  0
 13 14  1  0
 14 15  2  0
 15 16  1  0
 16 17  2  0
 17 12  1  0
 13 18  1  0
 18 19  1  0
  9 20  1  0
 20 21  2  0
 21 22  1  0
 22 23  2  0
 23 24  1  0
 24 25  2  0
 25 20  1  0
 23 26  1  0
 26 27  1  0
 26 31  1  0
 27 28  1  0
 28 29  1  0
 29 30  1  0
 30 31  1  0
 29 32  2  0
 29 33  2  0
M  END
> <chembl_id>
CHEMBL3780175

$$$$

  SciTegic12201610342D

 39 42  0  0  0  0            999 V2000
    2.5951   -3.0039    0.0000 C   0  0
    3.8933   -3.7570    0.0000 C   0  0
    3.8916   -4.9570    0.0000 C   0  0
    1.5548   -3.6021    0.0000 O   0  0
    2.5973   -1.5031    0.0000 N   0  0
    1.2990   -0.7500    0.0000 C   0  0
    1.2990    0.7500    0.0000 C   0  0
    0.0000    1.5000    0.0000 C   0  0
   -1.2990    0.7500    0.0000 C   0  0
   -1.2990   -0.7500    0.0000 C   0  0
    0.0000   -1.5000    0.0000 C   0  0
   -0.0031    3.0008    0.0000 O   0  0
   -3.9021    3.7404    0.0000 C   0  0
   -2.6005    2.9949    0.0000 N   0  0
   -1.3039    3.7494    0.0000 C   0  0
   -1.3092    5.2494    0.0000 C   0  0
   -2.6108    5.9949    0.0000 C   0  0
   -3.9073    5.2404    0.0000 N   0  0
   -0.0136    6.0070    0.0000 S   0  0
   -0.0195    7.2070    0.0000 C   0  0
   -5.2008    2.9882    0.0000 N   0  0
   -6.5021    3.7360    0.0000 C   0  0
   -7.8012    2.9860    0.0000 C   0  0
   -9.1002    3.7360    0.0000 C   0  0
   -9.1002    5.2360    0.0000 C   0  0
   -7.8012    5.9860    0.0000 C   0  0
   -6.5021    5.2360    0.0000 C   0  0
  -10.3999    5.9864    0.0000 N   0  0
  -11.7002    5.2385    0.0000 C   0  0
  -12.9981    5.9906    0.0000 C   0  0
  -12.9957    7.4906    0.0000 N   0  0
  -11.6955    8.2385    0.0000 C   0  0
  -10.3976    7.4864    0.0000 C   0  0
  -14.2927    8.2457    0.0000 C   0  0
  -15.3339    7.6492    0.0000 O   0  0
  -14.2882    9.7465    0.0000 C   0  0
  -15.3252   10.3503    0.0000 C   0  0
   -7.8043    1.4852    0.0000 O   0  0
   -8.8444    0.8867    0.0000 C   0  0
  1  2  1  0
  2  3  2  0
  1  4  2  0
  1  5  1  0
  6  7  1  0
  7  8  2  0
  8  9  1  0
  9 10  2  0
 10 11  1  0
  6 11  2  0
 13 14  1  0
 14 15  2  0
 15 16  1  0
 16 17  2  0
 17 18  1  0
 13 18  2  0
 19 20  1  0
 16 19  1  0
 22 23  1  0
 23 24  2  0
 24 25  1  0
 25 26  2  0
 26 27  1  0
 22 27  2  0
 28 29  1  0
 29 30  1  0
 30 31  1  0
 31 32  1  0
 32 33  1  0
 28 33  1  0
 34 35  2  0
 34 36  1  0
 36 37  1  0
 31 34  1  0
 25 28  1  0
 38 39  1  0
 23 38  1  0
 21 22  1  0
 13 21  1  0
 12 15  1  0
  8 12  1  0
  5  6  1  0
M  END
> <chembl_id>
CHEMBL3800597

$$$$

  SciTegic12161615052D

 32 35  0  0  0  0            999 V2000
    1.2990   -0.7500    0.0000 C   0  0
    1.2990    0.7500    0.0000 C   0  0
    0.0000    1.5000    0.0000 C   0  0
   -1.2990    0.7500    0.0000 C   0  0
   -1.2990   -0.7500    0.0000 C   0  0
    0.0000   -1.5000    0.0000 N   0  0
    2.5972    1.5031    0.0000 C   0  0
    3.6375    0.9049    0.0000 O   0  0
    2.5951    3.0039    0.0000 N   0  0
    2.3383   -1.3500    0.0000 O   0  0
    3.8933    3.7570    0.0000 C   0  0
    3.8933    5.2571    0.0000 C   0  0
    5.1924    6.0071    0.0000 C   0  0
    6.4914    5.2571    0.0000 C   0  0
    6.4915    3.7571    0.0000 C   0  0
    5.1925    3.0071    0.0000 C   0  0
    7.7911    6.0075    0.0000 N   0  0
    7.7935    7.5076    0.0000 C   0  0
    9.0937    8.2556    0.0000 C   0  0
   10.3916    7.5036    0.0000 N   0  0
   10.3893    6.0036    0.0000 C   0  0
    9.0891    5.2556    0.0000 C   0  0
   11.4318    8.1019    0.0000 C   0  0
   -0.0031    3.0008    0.0000 N   0  0
   -1.3039    3.7494    0.0000 C   0  0
   -2.6005    2.9949    0.0000 C   0  0
   -3.9021    3.7404    0.0000 C   0  0
   -3.9073    5.2404    0.0000 C   0  0
   -2.6108    5.9949    0.0000 C   0  0
   -1.3092    5.2494    0.0000 C   0  0
   -0.0136    6.0070    0.0000 O   0  0
   -0.0195    7.2070    0.0000 C   0  0
  1  2  1  0
  2  3  2  0
  3  4  1  0
  4  5  2  0
  5  6  1  0
  1  6  1  0
  7  8  2  0
  7  9  1  0
  2  7  1  0
  1 10  2  0
 11 12  1  0
 12 13  2  0
 13 14  1  0
 14 15  2  0
 15 16  1  0
 11 16  2  0
 17 18  1  0
 18 19  1  0
 19 20  1  0
 20 21  1  0
 21 22  1  0
 17 22  1  0
 20 23  1  0
 14 17  1  0
  9 11  1  0
  3 24  1  0
 24 25  1  0
 25 26  2  0
 26 27  1  0
 27 28  2  0
 28 29  1  0
 29 30  2  0
 30 25  1  0
 30 31  1  0
 31 32  1  0
M  END
> <chembl_id>
CHEMBL3780090

$$$$

  SciTegic04301217312D

 29 34  0  0  0  0            999 V2000
    8.4452   -0.7499    0.0000 C   0  0
    8.4452   -1.5749    0.0000 C   0  0
    9.1572   -1.9832    0.0000 C   0  0
    9.8692   -1.5749    0.0000 C   0  0
    9.1572   -0.3333    0.0000 C   0  0
    9.8674   -0.7529    0.0000 C   0  0
    9.8824    0.8939    0.0000 C   0  0
    9.1615    0.4894    0.0000 C   0  0
   10.5925    0.4743    0.0000 C   0  0
   10.5779   -0.3545    0.0000 C   0  0
   11.2845   -0.7791    0.0000 N   0  0
   11.3136    0.8783    0.0000 C   0  0
   12.0245    0.4491    0.0000 C   0  0
   12.0071   -0.3837    0.0000 C   0  0
   12.7156   -0.8127    0.0000 N   0  0
   12.7505    0.8526    0.0000 C   0  0
   11.3316    1.7023    0.0000 C   0  0
   12.0543    2.1018    0.0000 C   0  0
   12.0696    2.9231    0.0000 C   0  0
   11.3639    3.3509    0.0000 C   0  0
   10.6410    2.9513    0.0000 C   0  0
   10.6240    2.1238    0.0000 C   0  0
   13.4635    0.4189    0.0000 N   0  0
   13.4428   -0.4124    0.0000 C   0  0
   14.2271   -0.6889    0.0000 N   0  0
   14.7325   -0.0285    0.0000 N   0  0
   14.2604    0.6562    0.0000 C   0  0
   12.7667    1.6775    0.0000 O   0  0
   14.5347    1.4341    0.0000 S   0  0
  1  2  2  0
  1  5  1  0
  2  3  1  0
  5  8  1  0
 13 16  1  0
 14 15  1  0
 15 24  2  0
 23 16  1  0
 17 18  1  0
  6 10  1  0
  9  7  1  0
  7  8  1  0
  9 10  2  0
  3  4  2  0
  4  6  1  0
 17 22  2  0
 18 19  2  0
 19 20  1  0
 20 21  2  0
 21 22  1  0
 12 17  1  0
 23 24  1  0
  5  6  2  0
  9 12  1  0
 10 11  1  0
 11 14  2  0
 24 25  1  0
 25 26  1  0
 26 27  2  0
 27 23  1  0
 13 12  2  0
 16 28  2  0
 13 14  1  0
 27 29  1  0
M  END
> <chembl_id>
CHEMBL1944930

$$$$

  SciTegic04201609482D

 37 41  0  0  0  0            999 V2000
   -1.0028    1.5132    0.0000 C   0  0
   -2.3155    0.7475    0.0000 N   0  0
   -2.3155   -0.7475    0.0000 C   0  0
   -1.0028   -1.5132    0.0000 N   0  0
    0.2917    0.7475    0.0000 C   0  0
    0.2917   -0.7475    0.0000 C   0  0
    1.7138   -1.2033    0.0000 N   0  0
    2.5889    0.0182    0.0000 C   0  0
    1.7138    1.2033    0.0000 N   0  0
    2.1855   -2.6254    0.0000 C   0  0
    3.3606   -2.8684    0.0000 C   0  0
    1.3877   -3.5218    0.0000 C   0  0
   -0.9971    3.0138    0.0000 N   0  0
   -2.2935    3.7700    0.0000 C   0  0
   -2.4279    5.2511    0.0000 C   0  0
   -3.8944    5.5664    0.0000 N   0  0
   -4.6474    4.2692    0.0000 N   0  0
   -3.6464    3.1521    0.0000 C   0  0
   -3.6168   -1.4950    0.0000 N   0  0
   -3.7580   -2.9756    0.0000 C   0  0
   -5.2259   -3.2843    0.0000 C   0  0  2  0  0  0
   -5.9730   -1.9836    0.0000 C   0  0  1  0  0  0
   -4.9669   -0.8711    0.0000 C   0  0
   -7.1662   -1.8556    0.0000 F   0  0
   -5.8354   -4.6530    0.0000 N   0  0
   -4.9542   -5.8678    0.0000 C   0  0
   -5.5648   -7.2388    0.0000 C   0  0
   -3.7607   -5.7429    0.0000 O   0  0
   -4.8601   -8.2102    0.0000 C   0  0
   -1.3066    6.2447    0.0000 O   0  0
   -1.5460    7.4206    0.0000 C   0  0
   -6.1403    4.1158    0.0000 C   0  0
   -7.2003    5.1522    0.0000 C   0  0
   -8.5204    4.4399    0.0000 C   0  0
   -8.2509    2.9643    0.0000 N   0  0
   -6.7642    2.7647    0.0000 C   0  0
   -9.0791    2.0960    0.0000 C   0  0
  5  1  2  0
  1  2  1  0
  2  3  2  0
  3  4  1  0
  4  6  2  0
  5  6  1  0
  6  7  1  0
  7  8  1  0
  8  9  2  0
  9  5  1  0
  7 10  1  0
 10 11  1  0
 10 12  1  0
  1 13  1  0
 13 14  1  0
 14 15  1  0
 15 16  2  0
 16 17  1  0
 17 18  1  0
 18 14  2  0
  3 19  1  0
 19 20  1  0
 20 21  1  0
 21 22  1  0
 22 23  1  0
 23 19  1  0
 22 24  1  6
 21 25  1  1
 25 26  1  0
 26 27  1  0
 26 28  2  0
 27 29  2  0
 15 30  1  0
 30 31  1  0
 17 32  1  0
 32 33  1  0
 33 34  1  0
 34 35  1  0
 35 36  1  0
 36 32  1  0
 35 37  1  0
M  END
> <chembl_id>
CHEMBL3608433

$$$$

  SciTegic09081514162D

 34 37  0  0  0  0            999 V2000
    1.2990   -0.7500    0.0000 N   0  0
    1.2990    0.7500    0.0000 C   0  0
    0.0000    1.5000    0.0000 N   0  0
   -1.2990    0.7500    0.0000 C   0  0
   -1.2990   -0.7500    0.0000 C   0  0
    0.0000   -1.5000    0.0000 C   0  0
   -2.5973    1.5031    0.0000 O   0  0
    2.5972    1.5031    0.0000 N   0  0
    2.5951    3.0039    0.0000 C   0  0
   -3.8990    0.7562    0.0000 C   0  0
   -5.1976    1.5069    0.0000 C   0  0
   -6.4972    0.7578    0.0000 C   0  0
   -6.4981   -0.7422    0.0000 C   0  0
   -5.1996   -1.4931    0.0000 C   0  0
   -3.9001   -0.7439    0.0000 C   0  0
    3.8915    3.7585    0.0000 C   0  0
    3.8863    5.2585    0.0000 C   0  0
    2.5847    6.0040    0.0000 C   0  0
    1.2883    5.2495    0.0000 C   0  0
    1.2934    3.7495    0.0000 C   0  0
    2.5795    7.5047    0.0000 N   0  0
    3.8747    8.2614    0.0000 C   0  0
    3.8671    9.7614    0.0000 C   0  0
    2.5643   10.5048    0.0000 N   0  0
    1.2691    9.7483    0.0000 C   0  0
    1.2767    8.2483    0.0000 C   0  0
   -2.3383   -1.3500    0.0000 Cl  0  0
   -5.1975   -2.9939    0.0000 N   0  0
   -3.8972   -3.7433    0.0000 C   0  0
   -2.8586   -3.1422    0.0000 C   0  0
   -3.8955   -4.9433    0.0000 O   0  0
    2.5583   11.7048    0.0000 C   0  0
    5.1954    3.0153    0.0000 O   0  0
    6.2317    3.6204    0.0000 C   0  0
  1  2  2  0
  2  3  1  0
  3  4  2  0
  4  5  1  0
  5  6  2  0
  6  1  1  0
  4  7  1  0
  2  8  1  0
  8  9  1  0
  7 10  1  0
 10 11  2  0
 11 12  1  0
 12 13  2  0
 13 14  1  0
 14 15  2  0
 15 10  1  0
  9 16  2  0
 16 17  1  0
 17 18  2  0
 18 19  1  0
 19 20  2  0
 20  9  1  0
 21 22  1  0
 22 23  1  0
 23 24  1  0
 24 25  1  0
 25 26  1  0
 26 21  1  0
 18 21  1  0
  5 27  1  0
 14 28  1  0
 28 29  1  0
 29 30  1  0
 29 31  2  0
 24 32  1  0
 16 33  1  0
 33 34  1  0
M  END
> <chembl_id>
CHEMBL3425671

$$$$

  SciTegic12121614122D

 41 45  0  0  0  0            999 V2000
   -1.2913    7.5063    0.0000 C   0  0
   -2.5882    8.2616    0.0000 C   0  0
   -2.5845    9.4615    0.0000 C   0  0
   -0.2500    8.1028    0.0000 O   0  0
   -1.2959    6.0055    0.0000 N   0  0
    0.0011    5.2503    0.0000 C   0  0
   -0.0014    3.7503    0.0000 C   0  0
    1.2964    2.9980    0.0000 C   0  0
    2.5967    3.7460    0.0000 C   0  0
    2.5992    5.2460    0.0000 C   0  0
    1.3014    5.9981    0.0000 C   0  0
   -2.6111    0.7486    0.0000 C   0  0
   -1.2964    1.4973    0.0000 N   0  0
    0.0000    0.7486    0.0000 C   0  0
    0.0000   -0.7486    0.0000 C   0  0
   -1.2964   -1.4973    0.0000 C   0  0
   -2.6111   -0.7486    0.0000 N   0  0
    1.2964   -1.4973    0.0000 C   0  0
    2.5929   -0.7486    0.0000 C   0  0
    2.5929    0.7486    0.0000 C   0  0
    1.2964    1.4973    0.0000 N   0  0
    3.6321    1.3486    0.0000 O   0  0
   -3.9122    1.4966    0.0000 N   0  0
   -5.2109    0.7445    0.0000 C   0  0
   -6.5125    1.4901    0.0000 C   0  0
   -7.8091    0.7359    0.0000 C   0  0
   -7.8042   -0.7641    0.0000 C   0  0
   -6.5027   -1.5098    0.0000 C   0  0
   -5.2061   -0.7556    0.0000 C   0  0
   -9.1014   -1.5188    0.0000 N   0  0
  -10.4041   -0.7752    0.0000 C   0  0
  -11.6995   -1.5315    0.0000 C   0  0
  -11.6922   -3.0315    0.0000 N   0  0
  -10.3895   -3.7751    0.0000 C   0  0
   -9.0942   -3.0188    0.0000 C   0  0
  -12.7285   -3.6365    0.0000 C   0  0
   -6.5206    2.9910    0.0000 O   0  0
   -7.5627    3.5860    0.0000 C   0  0
    1.2995   -2.9981    0.0000 N   0  0
    2.3396   -3.5967    0.0000 C   0  0
    0.2613   -3.5999    0.0000 C   0  0
  1  2  1  0
  2  3  2  0
  1  4  2  0
  1  5  1  0
  6  7  1  0
  7  8  2  0
  8  9  1  0
  9 10  2  0
 10 11  1  0
  6 11  2  0
 12 13  1  0
 13 14  2  0
 14 15  1  0
 15 16  2  0
 16 17  1  0
 12 17  2  0
 18 19  2  0
 19 20  1  0
 20 21  1  0
 14 21  1  0
 15 18  1  0
 20 22  2  0
 24 25  1  0
 25 26  2  0
 26 27  1  0
 27 28  2  0
 28 29  1  0
 24 29  2  0
 30 31  1  0
 31 32  1  0
 32 33  1  0
 33 34  1  0
 34 35  1  0
 30 35  1  0
 33 36  1  0
 27 30  1  0
 37 38  1  0
 25 37  1  0
 23 24  1  0
 12 23  1  0
 39 40  1  0
 39 41  1  0
 18 39  1  0
  8 21  1  0
  5  6  1  0
M  END
> <chembl_id>
CHEMBL3752139

$$$$

  SciTegic08011209522D

 37 41  0  0  0  0            999 V2000
   27.4902   -5.1500    0.0000 N   0  0
   27.4891   -5.9773    0.0000 C   0  0
   28.2039   -6.3902    0.0000 N   0  0
   28.2021   -4.7372    0.0000 C   0  0
   28.9175   -5.1463    0.0000 C   0  0
   28.9209   -5.9794    0.0000 C   0  0
   29.6401   -6.3907    0.0000 N   0  0
   30.3605   -5.9735    0.0000 C   0  0
   30.3570   -5.1404    0.0000 N   0  0
   29.6332   -4.7245    0.0000 C   0  0
   29.6441   -7.2123    0.0000 C   0  0
   28.9291   -7.6261    0.0000 C   0  0
   28.9310   -8.4503    0.0000 C   0  0
   29.6471   -8.8617    0.0000 C   0  0
   30.3628   -8.4428    0.0000 C   0  0
   30.3574   -7.6200    0.0000 C   0  0
   26.7743   -6.3893    0.0000 N   0  0
   26.7736   -7.2143    0.0000 C   0  0
   26.0587   -7.6246    0.0000 C   0  0
   26.0577   -8.4489    0.0000 C   0  0
   26.7724   -8.8628    0.0000 C   0  0
   27.4896   -8.4464    0.0000 C   0  0
   27.4870   -7.6235    0.0000 C   0  0
   31.0761   -6.3841    0.0000 O   0  0
   31.0798   -8.8509    0.0000 N   0  0
   31.0850   -9.6758    0.0000 C   0  0
   31.8020  -10.0839    0.0000 C   0  0
   30.3731  -10.0928    0.0000 O   0  0
   31.8072  -10.9089    0.0000 C   0  0
   26.7728   -9.6878    0.0000 N   0  0
   31.0702   -4.7257    0.0000 C   0  0
   26.0559  -10.0974    0.0000 C   0  0
   26.0544  -10.9188    0.0000 C   0  0
   26.7673  -11.3347    0.0000 N   0  0
   27.4833  -10.9231    0.0000 C   0  0
   27.4865  -10.0955    0.0000 C   0  0
   26.7646  -12.1597    0.0000 C   0  0
  5 10  1  0
 17 18  1  0
  6  7  1  0
 18 19  2  0
  7  8  1  0
 19 20  1  0
  8  9  1  0
 20 21  2  0
  9 10  1  0
 21 22  1  0
  5  6  1  0
 22 23  2  0
 23 18  1  0
  8 24  2  0
 11 12  2  0
 15 25  1  0
  2  3  1  0
 25 26  1  0
 12 13  1  0
 26 27  1  0
  3  6  2  0
 26 28  2  0
 13 14  2  0
 27 29  2  0
  1  2  2  0
 21 30  1  0
 14 15  1  0
  9 31  1  0
 30 32  1  0
  5  4  2  0
 15 16  2  0
 16 11  1  0
  7 11  1  0
  4  1  1  0
 30 36  1  0
 32 33  1  0
 33 34  1  0
 34 35  1  0
 35 36  1  0
  2 17  1  0
 34 37  1  0
M  END
> <chembl_id>
CHEMBL2029428

$$$$

  SciTegic12211612232D

 27 31  0  0  0  0            999 V2000
    1.7138   -1.2033    0.0000 N   0  0
    2.5889    0.0182    0.0000 N   0  0
    1.7138    1.2033    0.0000 N   0  0
    0.2917    0.7475    0.0000 C   0  0
    0.2917   -0.7475    0.0000 C   0  0
   -1.0028    1.5132    0.0000 C   0  0
   -2.3155    0.7475    0.0000 C   0  0
   -2.3155   -0.7475    0.0000 C   0  0
   -1.0028   -1.5132    0.0000 C   0  0
    2.1852   -2.6281    0.0000 C   0  0
    1.2781   -3.8165    0.0000 C   0  0
    1.8565   -5.2005    0.0000 C   0  0
    3.3443   -5.3916    0.0000 C   0  0
    4.2537   -4.1987    0.0000 C   0  0
    3.6753   -2.8147    0.0000 C   0  0
    0.0879   -3.6632    0.0000 C   0  0
    3.1413   -8.0438    0.0000 S   0  0
    3.9230   -6.7763    0.0000 C   0  0
    5.3512   -7.0908    0.0000 N   0  0
    5.4957   -8.5772    0.0000 C   0  0
    4.1229   -9.1692    0.0000 C   0  0
    6.7115   -9.4626    0.0000 C   0  0
    6.5281  -10.9712    0.0000 C   0  0
    5.1553  -11.5632    0.0000 C   0  0
    3.9324  -10.6610    0.0000 C   0  0
    4.9878  -13.0547    0.0000 C   0  0
    3.8885  -13.5357    0.0000 C   0  0
  1  2  1  0
  2  3  2  0
  3  4  1  0
  4  5  1  0
  1  5  1  0
  6  7  1  0
  7  8  2  0
  8  9  1  0
  5  9  2  0
  4  6  2  0
 10 11  1  0
 11 12  2  0
 12 13  1  0
 13 14  2  0
 14 15  1  0
 10 15  2  0
 11 16  1  0
 17 18  1  0
 18 19  2  0
 19 20  1  0
 20 21  1  0
 17 21  1  0
 22 23  1  0
 23 24  2  0
 24 25  1  0
 21 25  2  0
 20 22  2  0
 26 27  1  0
 24 26  1  0
 13 18  1  0
  1 10  1  0
M  END
> <chembl_id>
CHEMBL3819651

$$$$

  SciTegic02271514372D

 27 31  0  0  0  0            999 V2000
    4.0933   -6.2519    0.0000 N   0  0
    6.9512   -6.2519    0.0000 N   0  0
    7.6657   -5.8394    0.0000 C   0  0
    7.6657   -5.0144    0.0000 N   0  0
    6.9512   -4.6019    0.0000 C   0  0
    6.2367   -5.0144    0.0000 C   0  0
    5.5223   -4.6019    0.0000 C   0  0
    4.8078   -5.0144    0.0000 C   0  0
    4.8078   -5.8394    0.0000 C   0  0
    5.5223   -6.2519    0.0000 C   0  0
    6.2367   -5.8394    0.0000 C   0  0
    8.2788   -4.4624    0.0000 N   0  0
    7.9432   -3.7087    0.0000 C   0  0
    7.1227   -3.7950    0.0000 N   0  0
   10.5937   -7.3319    0.0000 O   0  0
   11.0786   -6.6644    0.0000 C   0  0
   10.5937   -5.9970    0.0000 O   0  0
    9.8091   -6.2519    0.0000 C   0  0
    9.8091   -7.0769    0.0000 C   0  0
    9.0946   -5.8394    0.0000 C   0  0
    8.3801   -6.2519    0.0000 C   0  0
    8.3801   -7.0769    0.0000 C   0  0
    9.0946   -7.4894    0.0000 C   0  0
    4.0933   -7.0769    0.0000 C   0  0
    3.3788   -7.4894    0.0000 C   0  0
    3.3788   -8.3144    0.0000 C   0  0
    2.6643   -8.7269    0.0000 O   0  0
  2  3  2  0
  3  4  1  0
  4  5  1  0
  5  6  1  0
  6  7  1  0
  7  8  2  0
  8  9  1  0
  9 10  2  0
 10 11  1  0
  2 11  1  0
  6 11  2  0
 12 13  2  0
 13 14  1  0
  4 12  1  0
  5 14  2  0
  1  9  1  0
 15 16  1  0
 16 17  1  0
 17 18  1  0
 18 19  1  0
 15 19  1  0
 20 21  1  0
 21 22  2  0
 22 23  1  0
 19 23  2  0
 18 20  2  0
  3 21  1  0
  1 24  1  0
 24 25  1  0
 25 26  1  0
 26 27  1  0
M  END
> <chembl_id>
CHEMBL3309997

$$$$

  SciTegic12201611512D

 30 33  0  0  0  0            999 V2000
   -7.3414    2.1476    0.0000 C   0  0
   -6.0489    2.9104    0.0000 C   0  0
   -6.0632    4.4104    0.0000 C   0  0
   -4.7714    5.1728    0.0000 C   0  0
   -3.4653    4.4352    0.0000 C   0  0
   -3.4508    2.9353    0.0000 C   0  0
   -4.7427    2.1729    0.0000 C   0  0
   -8.3748    1.5377    0.0000 N   0  0
   -7.1082    5.0004    0.0000 F   0  0
   -2.1454    2.1947    0.0000 N   0  0
   -2.1332   -2.2973    0.0000 N   0  0
   -3.4277   -1.5498    0.0000 C   0  0
   -3.4277    0.0000    0.0000 N   0  0
   -2.1332    0.6928    0.0000 C   0  0
   -0.8205    0.0000    0.0000 C   0  0
    0.4558    0.6928    0.0000 C   0  0
    1.7503    0.0000    0.0000 C   0  0
    1.7503   -1.5498    0.0000 C   0  0
    0.4558   -2.2973    0.0000 C   0  0
   -0.8205   -1.5498    0.0000 C   0  0
    0.4558    2.1879    0.0000 O   0  0
    3.0631    0.6928    0.0000 O   0  0
    3.0631    2.1879    0.0000 C   0  0
    1.7503    2.9537    0.0000 C   0  0
    3.0410   -2.3153    0.0000 O   0  0
    3.0239   -3.8160    0.0000 C   0  0
    1.9778   -4.4039    0.0000 C   0  0
    4.3146   -4.5820    0.0000 O   0  0
    4.2976   -6.0827    0.0000 C   0  0
    5.3296   -6.6951    0.0000 C   0  0
  1  2  1  0
  2  3  1  0
  3  4  2  0
  4  5  1  0
  5  6  2  0
  6  7  1  0
  2  7  2  0
  1  8  3  0
  3  9  1  0
 11 12  1  0
 12 13  2  0
 13 14  1  0
 14 15  2  0
 15 16  1  0
 16 17  2  0
 17 18  1  0
 18 19  2  0
 19 20  1  0
 11 20  2  0
 15 20  1  0
 22 23  1  0
 23 24  1  0
 21 24  1  0
 16 21  1  0
 17 22  1  0
 26 27  1  0
 25 26  1  0
 29 30  1  0
 28 29  1  0
 26 28  1  0
 18 25  1  0
 10 14  1  0
  6 10  1  0
M  END
> <chembl_id>
CHEMBL3805654

$$$$

  SciTegic10311316212D

 50 55  0  0  0  0            999 V2000
   18.3785   -8.7827    0.0000 O   0  0
   18.5932   -9.5752    0.0000 S   0  0
   19.1721   -8.9931    0.0000 O   0  0
   10.0938  -11.0114    0.0000 C   0  0
   10.0926  -11.8309    0.0000 C   0  0
   10.8007  -12.2399    0.0000 C   0  0
   11.5103  -11.8305    0.0000 C   0  0
   11.5075  -11.0078    0.0000 C   0  0
   10.7989  -10.6025    0.0000 C   0  0
    9.3822  -10.5986    0.0000 N   0  0
    9.3840   -9.7805    0.0000 C   0  0
    8.6802   -9.3721    0.0000 C   0  0
    7.9702   -9.7774    0.0000 N   0  0
    7.9684  -10.5955    0.0000 C   0  0
    8.6767  -11.0084    0.0000 C   0  0
   10.8005  -13.0571    0.0000 O   0  0
   10.0927  -13.4655    0.0000 C   0  0
   12.2187  -12.2380    0.0000 N   0  0
   12.9258  -11.8283    0.0000 C   0  0
   13.6308  -12.2362    0.0000 N   0  0
   14.3374  -11.8271    0.0000 C   0  0
   14.3365  -11.0091    0.0000 C   0  0
   13.6232  -10.6018    0.0000 C   0  0
   12.9195  -11.0131    0.0000 N   0  0
   13.6190   -9.7846    0.0000 O   0  0
   14.3247   -9.3724    0.0000 C   0  0
   15.0314   -9.7777    0.0000 C   0  0
   15.7365   -9.3662    0.0000 C   0  0
   15.7328   -8.5481    0.0000 C   0  0
   15.0180   -8.1433    0.0000 C   0  0
   14.3158   -8.5572    0.0000 C   0  0
   15.0430  -10.5984    0.0000 Cl  0  0
    7.2639   -9.3663    0.0000 C   0  0
    7.2668   -8.5491    0.0000 O   0  0
    6.5548   -9.7724    0.0000 C   0  0
    5.8485   -9.3613    0.0000 C   0  0
   16.4378   -8.1350    0.0000 C   0  0
   17.1482   -8.5390    0.0000 O   0  0
   17.1534   -9.3562    0.0000 C   0  0
   16.4985   -9.8438    0.0000 N   0  0
   16.7561  -10.6193    0.0000 O   0  0
   17.5733  -10.6141    0.0000 N   0  3
   17.8207   -9.8353    0.0000 C   0  0
   19.2070  -10.1211    0.0000 C   0  0
   19.0404  -10.9211    0.0000 C   0  0
   19.6502  -11.4639    0.0000 C   0  0
   20.4268  -11.2068    0.0000 C   0  0
   20.5901  -10.4017    0.0000 C   0  0
   19.9790   -9.8624    0.0000 C   0  0
   18.0579  -11.2721    0.0000 O   0  5
  2  1  2  0
  3  2  2  0
  4  5  2  0
  5  6  1  0
  6  7  2  0
  7  8  1  0
  8  9  2  0
  9  4  1  0
 10 11  1  0
 10 15  1  0
 11 12  1  0
 12 13  1  0
 13 14  1  0
 14 15  1  0
  4 10  1  0
  6 16  1  0
 16 17  1  0
  7 18  1  0
 18 19  1  0
 19 20  2  0
 20 21  1  0
 21 22  2  0
 22 23  1  0
 23 24  2  0
 24 19  1  0
 23 25  1  0
 25 26  1  0
 26 27  2  0
 27 28  1  0
 28 29  2  0
 29 30  1  0
 30 31  2  0
 31 26  1  0
 22 32  1  0
 13 33  1  0
 33 34  2  0
 33 35  1  0
 35 36  2  0
 29 37  1  0
 37 38  1  0
 38 39  1  0
 39 40  2  0
 40 41  1  0
 41 42  1  0
 42 43  2  0
 43 39  1  0
 43  2  1  0
  2 44  1  0
 44 45  2  0
 45 46  1  0
 46 47  2  0
 47 48  1  0
 48 49  2  0
 49 44  1  0
 42 50  1  0
M  CHG  2  42   1  50  -1
M  END
> <chembl_id>
CHEMBL2408827

$$$$

  Mrv0541 05211314572D          

 24 26  0  0  0  0            999 V2000
   -0.9771  -10.8112    0.0000 C   0  0  0  0  0  0  0  0  0  0  0  0
   -0.7222  -11.5958    0.0000 C   0  0  0  0  0  0  0  0  0  0  0  0
    0.1028  -11.5958    0.0000 N   0  0  0  0  0  0  0  0  0  0  0  0
    0.3577  -10.8112    0.0000 N   0  0  0  0  0  0  0  0  0  0  0  0
   -0.3097  -10.3262    0.0000 C   0  0  0  0  0  0  0  0  0  0  0  0
   -0.3097   -9.5012    0.0000 C   0  0  0  0  0  0  0  0  0  0  0  0
   -1.2071  -12.2632    0.0000 C   0  0  0  0  0  0  0  0  0  0  0  0
    1.1424  -10.5562    0.0000 C   0  0  0  0  0  0  0  0  0  0  0  0
    1.3139   -9.7493    0.0000 N   0  0  0  0  0  0  0  0  0  0  0  0
    1.7554  -11.1083    0.0000 S   0  0  0  0  0  0  0  0  0  0  0  0
   -2.0276  -12.1770    0.0000 C   0  0  0  0  0  0  0  0  0  0  0  0
   -2.5125  -12.8444    0.0000 C   0  0  0  0  0  0  0  0  0  0  0  0
   -2.1770  -13.5981    0.0000 C   0  0  0  0  0  0  0  0  0  0  0  0
   -1.3565  -13.6843    0.0000 C   0  0  0  0  0  0  0  0  0  0  0  0
   -0.8716  -13.0169    0.0000 C   0  0  0  0  0  0  0  0  0  0  0  0
   -1.0242   -9.0887    0.0000 C   0  0  0  0  0  0  0  0  0  0  0  0
   -1.0242   -8.2637    0.0000 C   0  0  0  0  0  0  0  0  0  0  0  0
   -0.3097   -7.8512    0.0000 C   0  0  0  0  0  0  0  0  0  0  0  0
    0.4048   -8.2637    0.0000 C   0  0  0  0  0  0  0  0  0  0  0  0
    0.4048   -9.0887    0.0000 C   0  0  0  0  0  0  0  0  0  0  0  0
   -1.0209  -14.4380    0.0000 C   0  0  0  0  0  0  0  0  0  0  0  0
   -2.6619  -14.2655    0.0000 C   0  0  0  0  0  0  0  0  0  0  0  0
   -0.3097   -7.0262    0.0000 O   0  0  0  0  0  0  0  0  0  0  0  0
   -1.0242   -6.6137    0.0000 C   0  0  0  0  0  0  0  0  0  0  0  0
 11 12  1  0  0  0  0
  5  6  1  0  0  0  0
 12 13  2  0  0  0  0
 13 14  1  0  0  0  0
  2  7  1  0  0  0  0
 14 15  2  0  0  0  0
 15  7  1  0  0  0  0
  2  3  2  0  0  0  0
  6 16  2  0  0  0  0
  4  8  1  0  0  0  0
 16 17  1  0  0  0  0
  3  4  1  0  0  0  0
 17 18  2  0  0  0  0
  8  9  1  0  0  0  0
 18 19  1  0  0  0  0
  4  5  1  0  0  0  0
 19 20  2  0  0  0  0
 20  6  1  0  0  0  0
  8 10  2  0  0  0  0
 14 21  1  0  0  0  0
  5  1  1  0  0  0  0
 13 22  1  0  0  0  0
  7 11  2  0  0  0  0
 18 23  1  0  0  0  0
  1  2  1  0  0  0  0
 23 24  1  0  0  0  0
M  END
> <chembl_id>
CHEMBL1173814

$$$$

  SciTegic12091614152D

 34 36  0  0  0  0            999 V2000
    1.2990   -0.7500    0.0000 C   0  0
    1.2990    0.7500    0.0000 C   0  0
    0.0000    1.5000    0.0000 C   0  0
   -1.2990    0.7500    0.0000 C   0  0
   -1.2990   -0.7500    0.0000 C   0  0
    0.0000   -1.5000    0.0000 C   0  0
    2.5973   -1.5031    0.0000 N   0  0
   -0.0031    3.0008    0.0000 N   0  0
    1.2883   -5.2495    0.0000 C   0  0
    1.2935   -3.7495    0.0000 N   0  0
    2.5951   -3.0039    0.0000 C   0  0
    3.8915   -3.7585    0.0000 C   0  0
    3.8864   -5.2585    0.0000 C   0  0
    2.5847   -6.0040    0.0000 N   0  0
   -0.0125   -5.9981    0.0000 N   0  0
   -0.0155   -7.4989    0.0000 N   0  0
   -1.3163   -8.2475    0.0000 C   0  0
   -1.3194   -9.7484    0.0000 C   0  0
    4.9329   -3.1621    0.0000 Cl  0  0
   -1.3039    3.7494    0.0000 C   0  0
   -2.3421    3.1476    0.0000 O   0  0
   -1.3070    5.2502    0.0000 C   0  0
   -2.6078    5.9988    0.0000 C   0  0
   -2.6109    7.4996    0.0000 C   0  0
   -3.9118    8.2481    0.0000 N   0  0
   -3.9142    9.4481    0.0000 C   0  0
   -4.9499    7.6463    0.0000 C   0  0
   -2.6184  -10.4985    0.0000 C   0  0
   -2.6184  -11.9985    0.0000 C   0  0
   -1.3193  -12.7484    0.0000 C   0  0
   -0.0203  -11.9984    0.0000 C   0  0
   -0.0203  -10.4984    0.0000 C   0  0
   -1.3193  -13.9484    0.0000 F   0  0
   -2.3545   -7.6458    0.0000 C   0  0
  1  2  1  0
  2  3  2  0
  3  4  1  0
  4  5  2  0
  5  6  1  0
  1  6  2  0
  1  7  1  0
  3  8  1  0
  9 10  1  0
 10 11  2  0
 11 12  1  0
 12 13  2  0
 13 14  1  0
  9 14  2  0
 15 16  1  0
 17 18  1  0
 16 17  2  0
  9 15  1  0
 12 19  1  0
  7 11  1  0
  8 20  1  0
 20 21  2  0
 20 22  1  0
 22 23  2  0
 23 24  1  0
 24 25  1  0
 25 26  1  0
 25 27  1  0
 18 28  2  0
 28 29  1  0
 29 30  2  0
 30 31  1  0
 31 32  2  0
 32 18  1  0
 30 33  1  0
 17 34  1  0
M  END
> <chembl_id>
CHEMBL3740102

$$$$

  SciTegic09081514162D

 42 46  0  0  0  0            999 V2000
    1.2990   -0.7500    0.0000 N   0  0
    1.2990    0.7500    0.0000 C   0  0
    0.0000    1.5000    0.0000 N   0  0
   -1.2990    0.7500    0.0000 C   0  0
   -1.2990   -0.7500    0.0000 C   0  0
    0.0000   -1.5000    0.0000 C   0  0
   -2.5973    1.5031    0.0000 O   0  0
    2.5972    1.5031    0.0000 N   0  0
    2.5951    3.0039    0.0000 C   0  0
   -3.8990    0.7562    0.0000 C   0  0
   -5.1976    1.5069    0.0000 C   0  0
   -6.4972    0.7578    0.0000 C   0  0
   -6.4981   -0.7422    0.0000 C   0  0
   -5.1996   -1.4931    0.0000 C   0  0
   -3.9001   -0.7439    0.0000 C   0  0
    3.8915    3.7585    0.0000 C   0  0
    3.8863    5.2585    0.0000 C   0  0
    2.5847    6.0040    0.0000 C   0  0
    1.2883    5.2495    0.0000 C   0  0
    1.2934    3.7495    0.0000 C   0  0
    2.5795    7.5047    0.0000 N   0  0
    3.8747    8.2614    0.0000 C   0  0
    3.8671    9.7614    0.0000 C   0  0
    2.5643   10.5048    0.0000 N   0  0
    1.2691    9.7483    0.0000 C   0  0
    1.2767    8.2483    0.0000 C   0  0
   -2.3383   -1.3500    0.0000 Cl  0  0
   -5.1975   -2.9939    0.0000 N   0  0
   -3.8972   -3.7433    0.0000 C   0  0
   -3.8950   -5.2441    0.0000 C   0  0
   -2.8586   -3.1422    0.0000 O   0  0
   -2.5947   -5.9935    0.0000 C   0  0
    2.5583   11.7048    0.0000 C   0  0
    5.1954    3.0153    0.0000 O   0  0
    6.2317    3.6204    0.0000 C   0  0
   -5.1940   -5.9960    0.0000 C   0  0
   -6.2326   -6.5971    0.0000 N   0  0
   -2.5926   -7.4944    0.0000 C   0  0
   -1.3796   -8.3550    0.0000 N   0  0
   -1.8441   -9.7812    0.0000 C   0  0
   -3.3441   -9.7803    0.0000 N   0  0
   -3.8067   -8.3534    0.0000 C   0  0
  1  2  2  0
  2  3  1  0
  3  4  2  0
  4  5  1  0
  5  6  2  0
  6  1  1  0
  4  7  1  0
  2  8  1  0
  8  9  1  0
  7 10  1  0
 10 11  2  0
 11 12  1  0
 12 13  2  0
 13 14  1  0
 14 15  2  0
 15 10  1  0
  9 16  2  0
 16 17  1  0
 17 18  2  0
 18 19  1  0
 19 20  2  0
 20  9  1  0
 21 22  1  0
 22 23  1  0
 23 24  1  0
 24 25  1  0
 25 26  1  0
 26 21  1  0
 18 21  1  0
  5 27  1  0
 14 28  1  0
 28 29  1  0
 29 30  1  0
 29 31  2  0
 30 32  2  0
 24 33  1  0
 16 34  1  0
 34 35  1  0
 30 36  1  0
 36 37  3  0
 32 38  1  0
 38 39  1  0
 39 40  1  0
 40 41  2  0
 41 42  1  0
 42 38  2  0
M  END
> <chembl_id>
CHEMBL3425663

$$$$

  SciTegic11131810122D

 35 37  0  0  0  0            999 V2000
    3.6387   -0.8963    0.0000 C   0  0
    2.6003   -1.4977    0.0000 O   0  0
    1.2990   -0.7500    0.0000 C   0  0
    1.2990    0.7500    0.0000 C   0  0
    0.0000    1.5000    0.0000 C   0  0
   -0.0031    3.0008    0.0000 N   0  0
   -1.3039    3.7494    0.0000 C   0  0
   -1.3064    4.9494    0.0000 C   0  0
   -2.3421    3.1476    0.0000 C   0  0
   -1.2990    0.7500    0.0000 C   0  0
   -1.2990   -0.7500    0.0000 C   0  0
    0.0000   -1.5000    0.0000 C   0  0
   -0.0031   -3.0008    0.0000 N   0  0
   -1.3039   -3.7494    0.0000 C   0  0
   -1.3092   -5.2494    0.0000 N   0  0
   -2.6108   -5.9949    0.0000 C   0  0
   -3.9072   -5.2404    0.0000 C   0  0
   -3.9020   -3.7404    0.0000 C   0  0
   -5.1977   -2.9829    0.0000 N   0  0
   -5.1903   -1.4821    0.0000 C   0  0
   -6.4841   -0.7230    0.0000 C   0  0
   -6.4738    0.7769    0.0000 C   0  0
   -5.1696    1.5179    0.0000 C   0  0
   -3.8758    0.7590    0.0000 C   0  0
   -2.5693    1.4977    0.0000 N   0  0
   -1.2759    0.7365    0.0000 C   0  0
   -1.2862   -0.4635    0.0000 O   0  0
    0.0306    1.4752    0.0000 C   0  0
    1.0648    0.8666    0.0000 C   0  0
   -3.8861   -0.7410    0.0000 C   0  0
   -2.6004   -2.9949    0.0000 N   0  0
   -5.2096   -5.9864    0.0000 C   0  0
   -5.2145   -7.1863    0.0000 F   0  0
   -6.2465   -5.3824    0.0000 F   0  0
   -6.2512   -6.5823    0.0000 F   0  0
  1  2  1  0
  2  3  1  0
  3  4  2  0
  4  5  1  0
  5  6  1  0
  6  7  1  0
  7  8  1  0
  7  9  1  0
  5 10  2  0
 10 11  1  0
 11 12  2  0
 12  3  1  0
 12 13  1  0
 13 14  1  0
 14 15  2  0
 15 16  1  0
 16 17  2  0
 17 18  1  0
 18 19  1  0
 19 20  1  0
 20 21  2  0
 21 22  1  0
 22 23  2  0
 23 24  1  0
 24 25  1  0
 25 26  1  0
 26 27  2  0
 26 28  1  0
 28 29  2  0
 24 30  2  0
 30 20  1  0
 18 31  2  0
 31 14  1  0
 17 32  1  0
 32 33  1  0
 32 34  1  0
 32 35  1  0
M  END
> <chembl_id>
CHEMBL3973190

$$$$

  SciTegic05061409512D

 30 33  0  0  0  0            999 V2000
   14.0122  -12.0129    0.0000 N   0  0
   13.3026  -11.6035    0.0000 C   0  0
   13.3054  -10.7808    0.0000 C   0  0
   14.0140  -10.3755    0.0000 C   0  0
   14.7203  -11.6039    0.0000 C   0  0
   14.7190  -10.7829    0.0000 C   0  0
   15.4995  -10.5279    0.0000 N   0  0
   15.9832  -11.1915    0.0000 C   0  0
   15.5015  -11.8564    0.0000 N   0  0
   16.8004  -11.1903    0.0000 C   0  0
   17.2052  -11.8998    0.0000 C   0  0
   18.0217  -11.8990    0.0000 C   0  0
   18.4301  -11.1901    0.0000 C   0  0
   18.0160  -10.4807    0.0000 C   0  0
   17.2010  -10.4850    0.0000 C   0  0
   19.2472  -11.1879    0.0000 O   0  0
   19.6578  -11.8944    0.0000 C   0  0
   12.6027  -10.3678    0.0000 C   0  0
   12.5216   -9.5544    0.0000 C   0  0
   11.7220   -9.3811    0.0000 S   0  0
   11.3113  -10.0889    0.0000 C   0  0
   11.8584  -10.6972    0.0000 C   0  0
   10.5021  -10.1771    0.0000 C   0  0
   10.0193   -9.5177    0.0000 O   0  0
   10.1725  -10.9248    0.0000 N   0  0
    9.3601  -11.0133    0.0000 C   0  0
    9.0305  -11.7611    0.0000 C   0  0
    8.2182  -11.8495    0.0000 C   0  0
    9.5134  -12.4204    0.0000 C   0  0
    8.6177  -12.4642    0.0000 C   0  0
  5  1  1  0
  1  2  2  0
  2  3  1  0
  3  4  2  0
  4  6  1  0
  5  6  2  0
  6  7  1  0
  7  8  2  0
  8  9  1  0
  9  5  1  0
  8 10  1  0
 10 11  2  0
 11 12  1  0
 12 13  2  0
 13 14  1  0
 14 15  2  0
 15 10  1  0
 13 16  1  0
 16 17  1  0
 19 20  1  0
 18 19  2  0
 20 21  1  0
 21 22  2  0
 22 18  1  0
  3 18  1  0
 21 23  1  0
 23 24  2  0
 23 25  1  0
 25 26  1  0
 26 27  1  0
 27 28  1  0
 27 29  1  0
 27 30  1  0
M  END
> <chembl_id>
CHEMBL3125726

$$$$

  SciTegic05061409512D

 25 27  0  0  0  0            999 V2000
    4.4489  -10.8284    0.0000 N   0  0
    5.1585  -10.4190    0.0000 C   0  0
    5.1557   -9.5963    0.0000 N   0  0
    4.4471   -9.1910    0.0000 C   0  0
    3.7408  -10.4194    0.0000 C   0  0
    3.7431   -9.5975    0.0000 C   0  0
    3.0336   -9.1864    0.0000 C   0  0
    2.3214   -9.5960    0.0000 C   0  0
    2.3230  -10.4211    0.0000 C   0  0
    3.0331  -10.8285    0.0000 C   0  0
    4.4454   -8.3738    0.0000 N   0  0
    1.6136   -9.1876    0.0000 N   0  0
    0.9059   -9.5963    0.0000 C   0  0
    0.1982   -9.1878    0.0000 C   0  0
    0.9061  -10.4135    0.0000 O   0  0
   -0.5141   -9.5965    0.0000 C   0  0
    5.1522   -7.9638    0.0000 C   0  0
    5.8612   -8.3760    0.0000 C   0  0
    6.5675   -7.9666    0.0000 C   0  0
    6.5663   -7.1485    0.0000 C   0  0
    5.8527   -6.7416    0.0000 C   0  0
    5.1493   -7.1533    0.0000 C   0  0
    7.2726   -6.7375    0.0000 Br  0  0
    5.8481   -5.9290    0.0000 O   0  0
    6.5535   -5.5164    0.0000 C   0  0
  5  1  1  0
  1  2  2  0
  2  3  1  0
  3  4  2  0
  4  6  1  0
  5  6  1  0
  6  7  2  0
  7  8  1  0
  8  9  2  0
  9 10  1  0
 10  5  2  0
  4 11  1  0
  8 12  1  0
 12 13  1  0
 13 14  1  0
 13 15  2  0
 14 16  2  0
 11 17  1  0
 17 18  2  0
 18 19  1  0
 19 20  2  0
 20 21  1  0
 21 22  2  0
 22 17  1  0
 20 23  1  0
 21 24  1  0
 24 25  1  0
M  END
> <chembl_id>
CHEMBL3133905

$$$$

  SciTegic04201616412D

 32 35  0  0  0  0            999 V2000
    0.0000    0.7486    0.0000 C   0  0
   -1.2964    1.4973    0.0000 C   0  0
    0.0000   -0.7486    0.0000 C   0  0
    1.2964    1.4973    0.0000 C   0  0
   -2.6111    0.7486    0.0000 N   0  0
    1.2964   -1.4973    0.0000 C   0  0
   -1.2907    2.9981    0.0000 N   0  0
    2.5929    0.7486    0.0000 C   0  0
    2.5929   -0.7486    0.0000 C   0  0
   -5.1852    3.7608    0.0000 C   0  0
   -1.2964   -1.4973    0.0000 N   0  0
   -3.8880    3.0076    0.0000 C   0  0
   -2.6111   -0.7486    0.0000 C   0  0
   -2.5870    3.7544    0.0000 C   0  0
   -5.1815    5.2608    0.0000 C   0  0
   -3.8807    6.0076    0.0000 C   0  0
   -2.5835    5.2544    0.0000 C   0  0
    3.8911   -1.5017    0.0000 O   0  0
   -3.8777    7.2076    0.0000 Cl  0  0
   -1.5428    5.8519    0.0000 F   0  0
    3.8894   -2.7017    0.0000 C   0  0
    3.8911    1.5017    0.0000 O   0  0
    3.8890    3.0026    0.0000 C   0  0
    5.1872    3.7556    0.0000 N   0  0
    2.8487    3.6008    0.0000 O   0  0
    5.1872    5.2557    0.0000 C   0  0
    6.4863    6.0057    0.0000 C   0  0  2  0  0  0
    7.7853    5.2557    0.0000 N   0  0
    8.8245    5.8558    0.0000 C   0  0
    6.4863    3.0057    0.0000 C   0  0
    7.7853    3.7557    0.0000 C   0  0
    6.4862    7.2057    0.0000 C   0  0
  2  1  1  0
  3  1  1  0
  4  1  2  0
  5  2  2  0
  6  3  2  0
  7  2  1  0
  8  4  1  0
  9  8  2  0
 10 12  1  0
 11  3  1  0
 12 14  2  0
 13 11  2  0
 14  7  1  0
 15 16  1  0
 16 17  2  0
 17 14  1  0
 18  9  1  0
  6  9  1  0
 13  5  1  0
 10 15  2  0
 16 19  1  0
 17 20  1  0
 18 21  1  0
  8 22  1  0
 22 23  1  0
 23 24  1  0
 23 25  2  0
 24 26  1  0
 24 30  1  0
 26 27  1  0
 27 28  1  0
 28 31  1  0
 28 29  1  0
 31 30  1  0
 27 32  1  1
M  END
> <chembl_id>
CHEMBL3623289

$$$$

  SciTegic12201615542D

 41 46  0  0  0  0            999 V2000
   -0.5442   -6.1988    0.0000 C   0  0
   -1.4565   -7.3905    0.0000 C   0  0
   -1.0050   -5.0908    0.0000 O   0  0
    0.9442   -6.3922    0.0000 N   0  0
    1.8565   -5.2005    0.0000 C   0  0
    1.2781   -3.8165    0.0000 C   0  0
    2.1852   -2.6281    0.0000 C   0  0
    3.6753   -2.8147    0.0000 C   0  0
    4.2537   -4.1987    0.0000 C   0  0
    3.3443   -5.3916    0.0000 C   0  0
    2.5889    0.0182    0.0000 C   0  0
    1.7138   -1.2033    0.0000 N   0  0
    0.2917   -0.7475    0.0000 C   0  0
    0.2917    0.7475    0.0000 C   0  0
    1.7138    1.2033    0.0000 N   0  0
   -1.0028    1.5132    0.0000 C   0  0
   -2.3155    0.7475    0.0000 C   0  0
   -2.3155   -0.7475    0.0000 C   0  0
   -1.0028   -1.5132    0.0000 C   0  0
    4.0896    0.0290    0.0000 C   0  0
    4.9234    1.2700    0.0000 C   0  0
    4.7453   -1.3220    0.0000 N   0  0
    6.4199    1.1671    0.0000 N   0  0
    7.0791   -0.1803    0.0000 C   0  0
    6.2418   -1.4248    0.0000 C   0  0
    7.2286   -5.1568    0.0000 N   0  0
    8.5770   -4.4998    0.0000 N   0  0
    8.3688   -3.0143    0.0000 C   0  0
    6.9013   -2.7729    0.0000 C   0  0
    6.1870   -4.0774    0.0000 C   0  0
    6.2216   -9.5371    0.0000 N   0  0
    7.6659   -9.1322    0.0000 C   0  0
    8.0374   -7.6789    0.0000 C   0  0
    6.9674   -6.6347    0.0000 C   0  0
    5.5202   -7.0355    0.0000 C   0  0
    5.1488   -8.4888    0.0000 C   0  0
    5.9245  -10.6998    0.0000 C   0  0
    4.3957    2.3477    0.0000 N   0  0
   -2.6465   -7.2360    0.0000 C   0  0
    3.9258   -6.7752    0.0000 O   0  0
    4.9179   -6.9011    0.0000 C   0  0
  1  2  1  0
  1  3  2  0
  1  4  1  0
  5  6  1  0
  6  7  2  0
  7  8  1  0
  8  9  2  0
  9 10  1  0
  5 10  2  0
 11 12  1  0
 12 13  1  0
 13 14  1  0
 14 15  1  0
 11 15  2  0
 16 17  1  0
 17 18  2  0
 18 19  1  0
 13 19  2  0
 14 16  2  0
 20 21  1  0
 20 22  2  0
 21 23  2  0
 23 24  1  0
 24 25  2  0
 22 25  1  0
 26 27  1  0
 27 28  2  0
 28 29  1  0
 29 30  2  0
 26 30  1  0
 31 32  1  0
 32 33  1  0
 33 34  1  0
 34 35  1  0
 35 36  1  0
 31 36  1  0
 31 37  1  0
 26 34  1  0
 25 29  1  0
 21 38  1  0
 11 20  1  0
  7 12  1  0
  4  5  1  0
  2 39  2  0
 10 40  1  0
 40 41  1  0
M  END
> <chembl_id>
CHEMBL3814961

$$$$

  SciTegic09261414462D

 32 35  0  0  0  0            999 V2000
   19.6907  -21.9472    0.0000 N   0  0
   20.4004  -21.5377    0.0000 C   0  0
   20.3976  -20.7151    0.0000 N   0  0
   19.6889  -20.3098    0.0000 C   0  0
   18.9827  -21.5382    0.0000 C   0  0
   18.9839  -20.7217    0.0000 C   0  0
   18.2077  -20.4681    0.0000 C   0  0
   17.7267  -21.1281    0.0000 C   0  0
   18.2057  -21.7893    0.0000 S   0  0
   19.6852  -19.4926    0.0000 N   0  0
   20.3910  -19.0808    0.0000 C   0  0
   21.0984  -19.4909    0.0000 C   0  0
   21.8037  -19.0797    0.0000 C   0  0
   21.8004  -18.2617    0.0000 C   0  0
   21.0859  -17.8565    0.0000 C   0  0
   20.3835  -18.2700    0.0000 C   0  0
   16.9095  -21.1269    0.0000 N   0  0
   16.5020  -20.4186    0.0000 C   0  0
   15.6848  -20.4174    0.0000 C   0  0
   16.9116  -19.7114    0.0000 O   0  0
   22.5057  -17.8489    0.0000 F   0  0
   22.5131  -19.4854    0.0000 Cl  0  0
   15.2772  -19.7091    0.0000 C   0  0
   14.4600  -19.7079    0.0000 C   0  0
   14.0524  -18.9996    0.0000 N   0  0
   14.4664  -18.2963    0.0000 C   0  0
   14.0623  -17.5902    0.0000 C   0  0
   13.2447  -17.5848    0.0000 C   0  0
   12.8329  -18.2917    0.0000 C   0  0
   13.2387  -19.0041    0.0000 C   0  0
   12.8398  -16.8749    0.0000 S   0  0
   13.2521  -16.1694    0.0000 C   0  0
  5  1  1  0
  1  2  2  0
  2  3  1  0
  3  4  2  0
  4  6  1  0
  5  6  2  0
  6  7  1  0
  7  8  2  0
  8  9  1  0
  9  5  1  0
  4 10  1  0
 10 11  1  0
 11 12  2  0
 12 13  1  0
 13 14  2  0
 14 15  1  0
 15 16  2  0
 16 11  1  0
  8 17  1  0
 17 18  1  0
 18 19  1  0
 18 20  2  0
 14 21  1  0
 13 22  1  0
 19 23  2  0
 23 24  1  0
 24 25  1  0
 25 26  1  0
 25 30  1  0
 26 27  1  0
 27 28  1  0
 28 29  1  0
 29 30  1  0
 28 31  1  0
 31 32  1  0
M  END
> <chembl_id>
CHEMBL3233788

$$$$

  SciTegic06051313552D

 27 31  0  0  0  0            999 V2000
   19.2108  -19.9180    0.0000 C   0  0
   19.2097  -20.7375    0.0000 C   0  0
   19.9177  -21.1465    0.0000 C   0  0
   20.6274  -20.7370    0.0000 C   0  0
   20.6246  -19.9143    0.0000 C   0  0
   19.9159  -19.5091    0.0000 C   0  0
   21.3052  -19.4622    0.0000 C   0  0
   22.0725  -19.7434    0.0000 C   0  0
   22.5771  -19.1005    0.0000 C   0  0
   22.1211  -18.4226    0.0000 N   0  0
   21.3356  -18.6456    0.0000 N   0  0
   22.5267  -17.7131    0.0000 C   0  0
   23.3915  -19.1307    0.0000 C   0  0
   24.6376  -18.4674    0.0000 C   0  0
   23.8229  -18.4406    0.0000 C   0  0
   25.0242  -19.1921    0.0000 C   0  0
   23.3418  -17.7127    0.0000 C   0  0
   23.7473  -17.0041    0.0000 C   0  0
   23.3356  -16.2972    0.0000 C   0  0
   22.5142  -16.3033    0.0000 C   0  0
   22.1124  -17.0125    0.0000 C   0  0
   24.5886  -19.8826    0.0000 C   0  0
   23.7736  -19.8516    0.0000 C   0  0
   23.3411  -20.5409    0.0000 C   0  0
   23.7225  -21.2616    0.0000 C   0  0
   24.5407  -21.2887    0.0000 C   0  0
   24.9696  -20.5987    0.0000 C   0  0
  1  2  2  0
  2  3  1  0
  3  4  2  0
  4  5  1  0
  5  6  2  0
  6  1  1  0
  7  8  1  0
  8  9  1  0
  9 10  1  0
 10 11  1  0
 11  7  2  0
  5  7  1  0
 10 12  1  0
 13 23  2  0
 16 14  1  0
 14 15  2  0
 15 13  1  0
  9 13  1  0
 16 22  2  0
 12 17  2  0
 17 18  1  0
 18 19  2  0
 19 20  1  0
 20 21  2  0
 21 12  1  0
 22 23  1  0
 23 24  1  0
 24 25  2  0
 25 26  1  0
 26 27  2  0
 27 22  1  0
M  END
> <chembl_id>
CHEMBL2325088

$$$$

  SciTegic09081514162D

 43 47  0  0  0  0            999 V2000
    1.2990   -0.7500    0.0000 N   0  0
    1.2990    0.7500    0.0000 C   0  0
    0.0000    1.5000    0.0000 N   0  0
   -1.2990    0.7500    0.0000 C   0  0
   -1.2990   -0.7500    0.0000 C   0  0
    0.0000   -1.5000    0.0000 C   0  0
   -2.5973    1.5031    0.0000 O   0  0
    2.5972    1.5031    0.0000 N   0  0
    2.5951    3.0039    0.0000 C   0  0
   -3.8990    0.7562    0.0000 C   0  0
   -5.1976    1.5069    0.0000 C   0  0
   -6.4972    0.7578    0.0000 C   0  0
   -6.4981   -0.7422    0.0000 C   0  0
   -5.1996   -1.4931    0.0000 C   0  0
   -3.9001   -0.7439    0.0000 C   0  0
    3.8915    3.7585    0.0000 C   0  0
    3.8863    5.2585    0.0000 C   0  0
    2.5847    6.0040    0.0000 C   0  0
    1.2883    5.2495    0.0000 C   0  0
    1.2934    3.7495    0.0000 C   0  0
    2.5795    7.5047    0.0000 N   0  0
    3.8747    8.2614    0.0000 C   0  0
    3.8671    9.7614    0.0000 C   0  0
    2.5643   10.5048    0.0000 N   0  0
    1.2691    9.7483    0.0000 C   0  0
    1.2767    8.2483    0.0000 C   0  0
   -2.3383   -1.3500    0.0000 Cl  0  0
   -5.1975   -2.9939    0.0000 N   0  0
   -3.8972   -3.7433    0.0000 C   0  0
   -3.8950   -5.2441    0.0000 C   0  0
   -2.8586   -3.1422    0.0000 O   0  0
   -2.5947   -5.9935    0.0000 C   0  0
    2.5583   11.7048    0.0000 C   0  0
    5.1954    3.0153    0.0000 O   0  0
    6.2317    3.6204    0.0000 C   0  0
   -5.1940   -5.9960    0.0000 C   0  0
   -6.2326   -6.5971    0.0000 N   0  0
   -2.5926   -7.4944    0.0000 C   0  0
   -1.2941   -8.2453    0.0000 C   0  0
   -1.2950   -9.7453    0.0000 C   0  0
   -2.5945  -10.4944    0.0000 N   0  0
   -3.8931   -9.7436    0.0000 C   0  0
   -3.8921   -8.2436    0.0000 C   0  0
  1  2  2  0
  2  3  1  0
  3  4  2  0
  4  5  1  0
  5  6  2  0
  6  1  1  0
  4  7  1  0
  2  8  1  0
  8  9  1  0
  7 10  1  0
 10 11  2  0
 11 12  1  0
 12 13  2  0
 13 14  1  0
 14 15  2  0
 15 10  1  0
  9 16  2  0
 16 17  1  0
 17 18  2  0
 18 19  1  0
 19 20  2  0
 20  9  1  0
 21 22  1  0
 22 23  1  0
 23 24  1  0
 24 25  1  0
 25 26  1  0
 26 21  1  0
 18 21  1  0
  5 27  1  0
 14 28  1  0
 28 29  1  0
 29 30  1  0
 29 31  2  0
 30 32  2  0
 24 33  1  0
 16 34  1  0
 34 35  1  0
 30 36  1  0
 36 37  3  0
 32 38  1  0
 38 39  2  0
 39 40  1  0
 40 41  2  0
 41 42  1  0
 42 43  2  0
 43 38  1  0
M  END
> <chembl_id>
CHEMBL3425661

$$$$

  SciTegic12161615052D

 31 34  0  0  0  0            999 V2000
    1.2990   -0.7500    0.0000 C   0  0
    1.2990    0.7500    0.0000 C   0  0
    0.0000    1.5000    0.0000 C   0  0
   -1.2990    0.7500    0.0000 C   0  0
   -1.2990   -0.7500    0.0000 C   0  0
    0.0000   -1.5000    0.0000 N   0  0
    2.5972    1.5031    0.0000 C   0  0
    3.6375    0.9049    0.0000 O   0  0
    2.5951    3.0039    0.0000 N   0  0
    2.3383   -1.3500    0.0000 O   0  0
    3.8933    3.7570    0.0000 C   0  0
    3.8933    5.2571    0.0000 C   0  0
    5.1924    6.0071    0.0000 C   0  0
    6.4914    5.2571    0.0000 C   0  0
    6.4915    3.7571    0.0000 C   0  0
    5.1925    3.0071    0.0000 C   0  0
    7.7911    6.0075    0.0000 N   0  0
    7.7935    7.5076    0.0000 C   0  0
    9.0937    8.2556    0.0000 C   0  0
   10.3916    7.5036    0.0000 N   0  0
   10.3893    6.0036    0.0000 C   0  0
    9.0891    5.2556    0.0000 C   0  0
   11.4318    8.1019    0.0000 C   0  0
   -0.0031    3.0008    0.0000 N   0  0
   -1.3039    3.7494    0.0000 C   0  0
   -2.6005    2.9949    0.0000 C   0  0
   -3.9021    3.7404    0.0000 C   0  0
   -3.9073    5.2404    0.0000 C   0  0
   -2.6108    5.9949    0.0000 C   0  0
   -1.3092    5.2494    0.0000 C   0  0
   -0.2721    5.8530    0.0000 Cl  0  0
  1  2  1  0
  2  3  2  0
  3  4  1  0
  4  5  2  0
  5  6  1  0
  1  6  1  0
  7  8  2  0
  7  9  1  0
  2  7  1  0
  1 10  2  0
 11 12  1  0
 12 13  2  0
 13 14  1  0
 14 15  2  0
 15 16  1  0
 11 16  2  0
 17 18  1  0
 18 19  1  0
 19 20  1  0
 20 21  1  0
 21 22  1  0
 17 22  1  0
 20 23  1  0
 14 17  1  0
  9 11  1  0
  3 24  1  0
 24 25  1  0
 25 26  2  0
 26 27  1  0
 27 28  2  0
 28 29  1  0
 29 30  2  0
 30 25  1  0
 30 31  1  0
M  END
> <chembl_id>
CHEMBL3780955

$$$$

  SciTegic12161615132D

 15 15  0  0  0  0            999 V2000
   -4.9336    3.1588    0.0000 C   0  0
   -3.8933    3.7570    0.0000 C   0  0
   -3.8956    2.5570    0.0000 C   0  0
    1.2990   -0.7500    0.0000 N   0  0
    1.2990    0.7500    0.0000 C   0  0
    0.0000    1.5000    0.0000 N   0  0
   -1.2990    0.7500    0.0000 C   0  0
   -1.2990   -0.7500    0.0000 C   0  0
    0.0000   -1.5000    0.0000 C   0  0
    2.3383    1.3500    0.0000 N   0  0
   -2.5973    1.5031    0.0000 O   0  0
   -2.5951    3.0039    0.0000 C   0  0
   -3.8912    5.2578    0.0000 C   0  0
   -2.3383   -1.3500    0.0000 C   0  0
   -4.9292    5.8599    0.0000 O   0  0
  2  1  1  0
  3  2  1  0
  4  5  2  0
  5  6  1  0
  6  7  2  0
  7  8  1  0
  8  9  2  0
  9  4  1  0
  5 10  1  0
  7 11  1  0
 11 12  1  0
 12  2  1  0
  2 13  1  0
  8 14  1  0
 13 15  1  0
M  END
> <chembl_id>
CHEMBL3780032

$$$$

  SciTegic05221516342D

 35 38  0  0  0  0            999 V2000
   12.8324  -18.2962    0.0000 C   0  0
   12.8324  -17.4790    0.0000 C   0  0
   12.1233  -17.0704    0.0000 C   0  0
   12.1233  -16.2532    0.0000 C   0  0
   13.5374  -18.7048    0.0000 O   0  0
   12.1233  -18.7048    0.0000 N   0  0
   13.5374  -17.0704    0.0000 F   0  0
   12.8324  -15.8446    0.0000 N   0  0
   12.8324  -15.0274    0.0000 C   0  0
   13.5374  -16.2532    0.0000 C   0  0
   12.1233  -21.9735    0.0000 N   0  0
   11.4184  -22.3821    0.0000 C   0  0
   10.7093  -21.9735    0.0000 N   0  0
   10.7093  -21.1563    0.0000 C   0  0
   11.4184  -20.7477    0.0000 C   0  0
   11.4184  -19.9306    0.0000 C   0  0
   12.1233  -19.5220    0.0000 C   0  0
   12.8324  -19.9306    0.0000 C   0  0
   12.8324  -20.7477    0.0000 C   0  0
   12.1233  -21.1563    0.0000 C   0  0
   13.5374  -19.5220    0.0000 O   0  0
   15.1330  -20.9117    0.0000 O   0  0
   14.3305  -20.7410    0.0000 C   0  0
   14.2465  -19.9306    0.0000 C   0  0  2  0  0  0
   14.9938  -19.5962    0.0000 C   0  0
   15.5416  -20.2068    0.0000 C   0  0
   10.0002  -20.7477    0.0000 N   0  0
    9.2911  -21.1563    0.0000 C   0  0
    9.2911  -21.9735    0.0000 C   0  0
    8.5862  -22.3821    0.0000 C   0  0
    7.8771  -21.9735    0.0000 C   0  0
    7.8771  -21.1563    0.0000 C   0  0
    8.5862  -20.7477    0.0000 C   0  0
    7.1721  -22.3821    0.0000 F   0  0
    8.5862  -23.1993    0.0000 Cl  0  0
  1  2  1  0
  2  3  2  0
  3  4  1  0
  1  5  2  0
  1  6  1  0
  2  7  1  0
  8  9  1  0
  8 10  1  0
  4  8  1  0
 11 12  1  0
 12 13  2  0
 13 14  1  0
 14 15  2  0
 15 16  1  0
 16 17  2  0
 17 18  1  0
 18 19  2  0
 19 20  1  0
 11 20  2  0
 15 20  1  0
 22 23  1  0
 23 24  1  0
 24 25  1  0
 25 26  1  0
 22 26  1  0
 24 21  1  1
 18 21  1  0
 28 29  1  0
 29 30  2  0
 30 31  1  0
 31 32  2  0
 32 33  1  0
 28 33  2  0
 31 34  1  0
 30 35  1  0
 27 28  1  0
 14 27  1  0
  6 17  1  0
M  END
> <chembl_id>
CHEMBL3357641

$$$$

  SciTegic09261414462D

 25 27  0  0  0  0            999 V2000
   17.7922   -4.5922    0.0000 N   0  0
   18.5019   -4.1827    0.0000 C   0  0
   18.4990   -3.3601    0.0000 N   0  0
   17.7904   -2.9548    0.0000 C   0  0
   17.0842   -4.1832    0.0000 C   0  0
   17.0854   -3.3667    0.0000 C   0  0
   16.3092   -3.1131    0.0000 C   0  0
   15.8282   -3.7731    0.0000 C   0  0
   16.3072   -4.4343    0.0000 S   0  0
   17.7867   -2.1376    0.0000 N   0  0
   18.4925   -1.7258    0.0000 C   0  0
   19.1999   -2.1359    0.0000 C   0  0
   19.9052   -1.7247    0.0000 C   0  0
   19.9019   -0.9067    0.0000 C   0  0
   19.1873   -0.5015    0.0000 C   0  0
   18.4849   -0.9150    0.0000 C   0  0
   15.0110   -3.7719    0.0000 N   0  0
   14.6034   -3.0636    0.0000 C   0  0
   13.7863   -3.0624    0.0000 O   0  0
   15.0131   -2.3565    0.0000 O   0  0
   20.6072   -0.4939    0.0000 F   0  0
   20.6146   -2.1304    0.0000 Cl  0  0
   13.3766   -3.7695    0.0000 C   0  0
   12.5594   -3.7683    0.0000 C   0  0
   12.1498   -4.4754    0.0000 C   0  0
  5  1  1  0
  1  2  2  0
  2  3  1  0
  3  4  2  0
  4  6  1  0
  5  6  2  0
  6  7  1  0
  7  8  2  0
  8  9  1  0
  9  5  1  0
  4 10  1  0
 10 11  1  0
 11 12  2  0
 12 13  1  0
 13 14  2  0
 14 15  1  0
 15 16  2  0
 16 11  1  0
  8 17  1  0
 17 18  1  0
 18 19  1  0
 18 20  2  0
 14 21  1  0
 13 22  1  0
 19 23  1  0
 23 24  1  0
 24 25  2  0
M  END
> <chembl_id>
CHEMBL3233769

$$$$

  SciTegic09081514182D

 26 27  0  0  0  0            999 V2000
    1.2990   -0.7500    0.0000 C   0  0
    1.2990    0.7500    0.0000 C   0  0
    0.0000    1.5000    0.0000 C   0  0
   -1.2990    0.7500    0.0000 C   0  0
   -1.2990   -0.7500    0.0000 C   0  0
    0.0000   -1.5000    0.0000 C   0  0
   -2.5972   -1.5031    0.0000 C   0  0
   -2.5951   -3.0039    0.0000 C   0  0
   -3.8933   -3.7570    0.0000 C   0  0
   -3.8912   -5.2578    0.0000 C   0  0
   -4.9336   -3.1588    0.0000 O   0  0
   -5.1894   -6.0109    0.0000 C   0  0
   -5.1872   -7.5117    0.0000 C   0  0
   -6.2296   -5.4127    0.0000 O   0  0
   -6.4854   -8.2648    0.0000 C   0  0
   -6.4833   -9.7657    0.0000 C   0  0
   -7.7797  -10.5203    0.0000 C   0  0
   -7.7745  -12.0202    0.0000 C   0  0
   -6.4729  -12.7657    0.0000 C   0  0
   -5.1764  -12.0112    0.0000 C   0  0
   -5.1816  -10.5113    0.0000 C   0  0
    2.5973   -1.5031    0.0000 O   0  0
    2.3383    1.3500    0.0000 O   0  0
   -6.4687  -13.9657    0.0000 O   0  0
    2.5956   -2.7031    0.0000 C   0  0
   -4.1351  -12.6076    0.0000 O   0  0
  1  2  2  0
  2  3  1  0
  3  4  2  0
  4  5  1  0
  5  6  2  0
  6  1  1  0
  5  7  1  0
  7  8  2  0
  8  9  1  0
  9 10  2  0
  9 11  1  0
 10 12  1  0
 12 13  1  0
 12 14  2  0
 13 15  2  0
 15 16  1  0
 16 17  2  0
 17 18  1  0
 18 19  2  0
 19 20  1  0
 20 21  2  0
 21 16  1  0
  1 22  1  0
  2 23  1  0
 19 24  1  0
 22 25  1  0
 20 26  1  0
M  END
> <chembl_id>
CHEMBL3402849

$$$$

  SciTegic01161211252D

 33 37  0  0  0  0            999 V2000
    8.1387   -1.6114    0.0000 C   0  0
    8.1376   -2.4500    0.0000 C   0  0
    8.8646   -2.8704    0.0000 C   0  0
    9.5889   -2.4495    0.0000 C   0  0
    9.5860   -1.6076    0.0000 C   0  0
    8.8626   -1.1950    0.0000 C   0  0
    8.8644   -3.7065    0.0000 F   0  0
    7.4163   -1.1956    0.0000 Cl  0  0
    8.8601   -0.3590    0.0000 F   0  0
    3.1649   -2.8946    0.0000 C   0  0
    3.1629   -3.7133    0.0000 N   0  0
    3.8701   -4.1255    0.0000 C   0  0
    4.5851   -3.7106    0.0000 C   0  0
    4.5853   -2.8893    0.0000 C   0  0
    3.8673   -2.4829    0.0000 C   0  0
    5.2960   -4.1223    0.0000 C   0  0
    5.2958   -4.9484    0.0000 C   0  0
    6.0065   -5.3538    0.0000 N   0  0
    6.0003   -3.7109    0.0000 C   0  0
    6.7118   -4.1148    0.0000 C   0  0
    6.7135   -4.9398    0.0000 C   0  0
    7.4250   -5.3472    0.0000 N   0  0
    8.1332   -4.9369    0.0000 C   0  0
    8.1316   -4.1161    0.0000 C   0  0
    7.4166   -3.7059    0.0000 N   0  0
    2.4530   -2.4905    0.0000 N   0  0
    2.4497   -1.6696    0.0000 C   0  0
    1.7460   -1.2569    0.0000 C   0  0
    1.0329   -1.6681    0.0000 N   0  0
    1.0321   -2.4879    0.0000 C   0  0
    1.7445   -2.8963    0.0000 C   0  0
    0.3265   -1.2527    0.0000 C   0  0
    7.4145   -2.8698    0.0000 C   0  0
  6  1  1  0
  1  2  2  0
  3  4  2  0
  3  7  1  0
  1  8  1  0
  6  9  1  0
  4  5  1  0
  2  3  1  0
 13 14  2  0
 14 15  1  0
 15 10  2  0
 13 16  1  0
 16 17  1  0
 17 18  2  0
 18 21  1  0
 20 19  1  0
 19 16  2  0
 20 21  2  0
 20 25  1  0
 21 22  1  0
 22 23  1  0
 23 24  1  0
 24 25  1  0
 10 26  1  0
 26 27  1  0
 26 31  1  0
 27 28  1  0
 28 29  1  0
 29 30  1  0
 30 31  1  0
 29 32  1  0
 10 11  1  0
 11 12  2  0
 12 13  1  0
  5  6  2  0
 25 33  1  0
 33  2  1  0
M  END
> <chembl_id>
CHEMBL1164265

$$$$

  SciTegic09261414462D

 25 27  0  0  0  0            999 V2000
    6.0214   -4.4436    0.0000 N   0  0
    6.7310   -4.0341    0.0000 C   0  0
    6.7282   -3.2115    0.0000 N   0  0
    6.0196   -2.8062    0.0000 C   0  0
    5.3133   -4.0346    0.0000 C   0  0
    5.3145   -3.2181    0.0000 C   0  0
    4.5383   -2.9646    0.0000 C   0  0
    4.0573   -3.6245    0.0000 C   0  0
    4.5364   -4.2857    0.0000 S   0  0
    6.0158   -1.9890    0.0000 N   0  0
    6.7216   -1.5772    0.0000 C   0  0
    7.4290   -1.9873    0.0000 C   0  0
    8.1344   -1.5761    0.0000 C   0  0
    8.1310   -0.7581    0.0000 C   0  0
    7.4165   -0.3529    0.0000 C   0  0
    6.7141   -0.7664    0.0000 C   0  0
    3.2402   -3.6233    0.0000 N   0  0
    2.8326   -2.9150    0.0000 C   0  0
    2.0154   -2.9138    0.0000 C   0  0
    3.2422   -2.2079    0.0000 O   0  0
    8.8363   -0.3453    0.0000 F   0  0
    8.8438   -1.9818    0.0000 Cl  0  0
    1.6058   -3.6209    0.0000 C   0  0
    1.6078   -2.2055    0.0000 C   0  0
    0.7886   -3.6197    0.0000 C   0  0
  5  1  1  0
  1  2  2  0
  2  3  1  0
  3  4  2  0
  4  6  1  0
  5  6  2  0
  6  7  1  0
  7  8  2  0
  8  9  1  0
  9  5  1  0
  4 10  1  0
 10 11  1  0
 11 12  2  0
 12 13  1  0
 13 14  2  0
 14 15  1  0
 15 16  2  0
 16 11  1  0
  8 17  1  0
 17 18  1  0
 18 19  1  0
 18 20  2  0
 14 21  1  0
 13 22  1  0
 19 23  2  0
 19 24  1  0
 23 25  1  0
M  END
> <chembl_id>
CHEMBL3233768

$$$$

  SciTegic12171313052D

 29 32  0  0  0  0            999 V2000
   17.0440   -3.1284    0.0000 C   0  0
   17.0429   -3.9479    0.0000 C   0  0
   17.7509   -4.3569    0.0000 C   0  0
   18.4606   -3.9475    0.0000 C   0  0
   18.4578   -3.1248    0.0000 C   0  0
   17.7491   -2.7195    0.0000 C   0  0
   17.7467   -1.9024    0.0000 N   0  0
   18.4532   -1.4916    0.0000 C   0  0
   19.1636   -1.9026    0.0000 N   0  0
   19.1537   -0.2682    0.0000 C   0  0
   18.4506   -0.6805    0.0000 N   0  0
   19.8676   -0.6745    0.0000 C   0  0
   19.8684   -1.4942    0.0000 C   0  0
   20.5748   -1.9011    0.0000 N   0  0
   21.2849   -1.4929    0.0000 C   0  0
   21.2841   -0.6731    0.0000 C   0  0
   20.5732   -0.2617    0.0000 N   0  0
   20.5759   -2.7156    0.0000 C   0  0
   19.8664   -3.1233    0.0000 C   0  0
   19.8657   -3.9397    0.0000 C   0  0
   20.5738   -4.3495    0.0000 C   0  0
   21.2840   -3.9368    0.0000 C   0  0
   21.2812   -3.1217    0.0000 C   0  0
   21.9924   -1.9018    0.0000 O   0  0
   21.9930   -4.3432    0.0000 N   0  0
   21.9955   -5.1604    0.0000 C   0  0
   22.7045   -5.5668    0.0000 O   0  0
   21.2891   -5.5712    0.0000 C   0  0
   20.5801   -5.1648    0.0000 C   0  0
  1  2  2  0
  2  3  1  0
  3  4  2  0
  4  5  1  0
  5  6  2  0
  6  1  1  0
  6  7  1  0
  7  8  1  0
  8  9  2  0
  9 13  1  0
 12 10  1  0
 10 11  2  0
 11  8  1  0
 12 13  2  0
 12 17  1  0
 13 14  1  0
 14 15  1  0
 15 16  1  0
 16 17  2  0
 18 19  2  0
 19 20  1  0
 20 21  2  0
 21 22  1  0
 22 23  2  0
 23 18  1  0
 14 18  1  0
 15 24  2  0
 22 25  1  0
 25 26  1  0
 26 27  2  0
 26 28  1  0
 28 29  2  0
M  END
> <chembl_id>
CHEMBL2437488

$$$$

  SciTegic04201616412D

 31 34  0  0  0  0            999 V2000
    0.0000    0.7486    0.0000 C   0  0
   -1.2964    1.4973    0.0000 C   0  0
    0.0000   -0.7486    0.0000 C   0  0
    1.2964    1.4973    0.0000 C   0  0
   -2.6111    0.7486    0.0000 N   0  0
    1.2964   -1.4973    0.0000 C   0  0
   -1.2907    2.9981    0.0000 N   0  0
    2.5929    0.7486    0.0000 C   0  0
    2.5929   -0.7486    0.0000 C   0  0
   -5.1852    3.7608    0.0000 C   0  0
   -1.2964   -1.4973    0.0000 N   0  0
   -3.8880    3.0076    0.0000 C   0  0
   -2.6111   -0.7486    0.0000 C   0  0
   -2.5870    3.7544    0.0000 C   0  0
   -5.1815    5.2608    0.0000 C   0  0
   -3.8807    6.0076    0.0000 C   0  0
   -2.5835    5.2544    0.0000 C   0  0
    3.8911   -1.5017    0.0000 O   0  0
   -3.8777    7.2076    0.0000 Cl  0  0
   -1.5428    5.8519    0.0000 F   0  0
    3.8894   -2.7017    0.0000 C   0  0
    3.8911    1.5017    0.0000 O   0  0
    3.8890    3.0026    0.0000 C   0  0
    5.1872    3.7556    0.0000 N   0  0
    2.8487    3.6008    0.0000 O   0  0
    5.1872    5.2557    0.0000 C   0  0
    6.4863    6.0057    0.0000 C   0  0
    7.7853    5.2557    0.0000 N   0  0
    7.7853    3.7557    0.0000 C   0  0
    6.4863    3.0057    0.0000 C   0  0
    8.8245    5.8558    0.0000 C   0  0
  2  1  1  0
  3  1  1  0
  4  1  2  0
  5  2  2  0
  6  3  2  0
  7  2  1  0
  8  4  1  0
  9  8  2  0
 10 12  1  0
 11  3  1  0
 12 14  2  0
 13 11  2  0
 14  7  1  0
 15 16  1  0
 16 17  2  0
 17 14  1  0
 18  9  1  0
  6  9  1  0
 13  5  1  0
 10 15  2  0
 16 19  1  0
 17 20  1  0
 18 21  1  0
  8 22  1  0
 22 23  1  0
 23 24  1  0
 23 25  2  0
 24 26  1  0
 24 30  1  0
 26 27  1  0
 27 28  1  0
 28 29  1  0
 29 30  1  0
 28 31  1  0
M  END
> <chembl_id>
CHEMBL3623282

$$$$

  SciTegic10011413212D

 49 54  0  0  0  0            999 V2000
   24.6973   -9.4514    0.0000 C   0  0
   24.6973  -10.2685    0.0000 C   0  0
   25.4026  -10.6730    0.0000 N   0  0
   26.1079  -10.2685    0.0000 C   0  0
   26.1079   -9.4514    0.0000 C   0  0
   25.4026   -9.0386    0.0000 N   0  0
   25.4026  -11.4902    0.0000 C   0  0
   25.4031   -8.2223    0.0000 C   0  0
   26.1124   -7.8143    0.0000 C   0  0
   26.1127   -6.9979    0.0000 C   0  0
   25.4045   -6.5884    0.0000 C   0  0
   24.6944   -7.0014    0.0000 C   0  0
   24.6976   -7.8165    0.0000 C   0  0
   23.9853   -6.5953    0.0000 O   0  0
   23.2790   -7.0064    0.0000 C   0  0
   25.4034   -5.7712    0.0000 N   0  0
   26.1106   -5.3617    0.0000 C   0  0
   26.8171   -5.7736    0.0000 N   0  0
   26.8099   -4.1391    0.0000 C   0  0
   26.1062   -4.5503    0.0000 N   0  0
   27.5281   -5.3632    0.0000 C   0  0
   27.5232   -4.5466    0.0000 C   0  0
   28.1611   -4.0279    0.0000 C   0  0
   28.1754   -5.8704    0.0000 N   0  0
   28.9747   -5.6798    0.0000 C   0  0
   28.9594   -4.1992    0.0000 N   0  0
   29.3219   -4.9355    0.0000 C   0  0
   27.9703   -3.2333    0.0000 O   0  0
   29.4912   -6.3131    0.0000 O   0  0
   28.0029   -6.6648    0.0000 C   0  0
   27.2228   -6.9118    0.0000 C   0  0
   27.0480   -7.7093    0.0000 C   0  0
   27.6525   -8.2606    0.0000 C   0  0
   28.4344   -8.0088    0.0000 C   0  0
   28.6054   -7.2119    0.0000 C   0  0
   29.0404   -8.5571    0.0000 N   0  0
   28.8686   -9.3560    0.0000 C   0  0
   29.4746   -9.9042    0.0000 C   0  0
   28.0908   -9.6067    0.0000 O   0  0
   29.3028  -10.7031    0.0000 C   0  0
   29.4619   -3.5548    0.0000 C   0  0
   30.1391   -4.9268    0.0000 C   0  0
   30.5402   -4.2148    0.0000 C   0  0
   31.3616   -4.2076    0.0000 C   0  0
   31.7626   -3.4965    0.0000 C   0  0
   31.3465   -2.7921    0.0000 C   0  0
   30.5252   -2.8034    0.0000 C   0  0
   30.1278   -3.5151    0.0000 C   0  0
   31.7467   -2.0796    0.0000 F   0  0
  1  2  1  0
  1  6  1  0
  2  3  1  0
  3  4  1  0
  4  5  1  0
  5  6  1  0
  3  7  1  0
  8  9  2  0
  9 10  1  0
 10 11  2  0
 11 12  1  0
 12 13  2  0
 13  8  1  0
  6  8  1  0
 12 14  1  0
 14 15  1  0
 11 16  1  0
 16 17  1  0
 17 18  2  0
 18 21  1  0
 22 19  1  0
 19 20  2  0
 20 17  1  0
 21 22  2  0
 22 23  1  0
 21 24  1  0
 23 26  1  0
 24 25  1  0
 25 27  1  0
 26 27  1  0
 23 28  2  0
 25 29  2  0
 30 31  2  0
 31 32  1  0
 32 33  2  0
 33 34  1  0
 34 35  2  0
 35 30  1  0
 24 30  1  0
 34 36  1  0
 36 37  1  0
 37 38  1  0
 37 39  2  0
 38 40  2  0
 26 41  1  0
 27 42  1  0
 42 43  1  0
 43 44  2  0
 44 45  1  0
 45 46  2  0
 46 47  1  0
 47 48  2  0
 48 43  1  0
 46 49  1  0
M  END
> <chembl_id>
CHEMBL3219347

$$$$

  Mrv0541 04051115152D          

 35 38  0  0  0  0            999 V2000
    1.0310    4.2116    0.0000 C   0  0  0  0  0  0  0  0  0  0  0  0
    1.0310    5.0366    0.0000 C   0  0  0  0  0  0  0  0  0  0  0  0
    0.3165    5.4491    0.0000 N   0  0  0  0  0  0  0  0  0  0  0  0
    0.3165    6.2741    0.0000 C   0  0  0  0  0  0  0  0  0  0  0  0
   -0.3980    5.0366    0.0000 C   0  0  0  0  0  0  0  0  0  0  0  0
   -0.3980    4.2116    0.0000 C   0  0  0  0  0  0  0  0  0  0  0  0
    0.3165    3.7991    0.0000 N   0  0  0  0  0  0  0  0  0  0  0  0
    0.3165    2.9741    0.0000 C   0  0  0  0  0  0  0  0  0  0  0  0
   -0.3980    2.5616    0.0000 C   0  0  0  0  0  0  0  0  0  0  0  0
   -0.3980    1.7366    0.0000 C   0  0  0  0  0  0  0  0  0  0  0  0
   -1.1124    1.3241    0.0000 O   0  0  0  0  0  0  0  0  0  0  0  0
   -1.8269    1.7366    0.0000 C   0  0  0  0  0  0  0  0  0  0  0  0
    1.0310    2.5616    0.0000 C   0  0  0  0  0  0  0  0  0  0  0  0
    1.0310    1.7366    0.0000 C   0  0  0  0  0  0  0  0  0  0  0  0
    0.3165    1.3241    0.0000 C   0  0  0  0  0  0  0  0  0  0  0  0
    0.3165    0.4991    0.0000 N   0  0  0  0  0  0  0  0  0  0  0  0
   -0.3980    0.0866    0.0000 C   0  0  0  0  0  0  0  0  0  0  0  0
   -0.3980   -0.7384    0.0000 N   0  0  0  0  0  0  0  0  0  0  0  0
   -1.1124    0.4991    0.0000 N   0  0  0  0  0  0  0  0  0  0  0  0
   -1.8269    0.0866    0.0000 C   0  0  0  0  0  0  0  0  0  0  0  0
   -1.8269   -0.7384    0.0000 C   0  0  0  0  0  0  0  0  0  0  0  0
   -2.5414   -1.1509    0.0000 Cl  0  0  0  0  0  0  0  0  0  0  0  0
   -1.1124   -1.1509    0.0000 C   0  0  0  0  0  0  0  0  0  0  0  0
   -1.1124   -1.9759    0.0000 O   0  0  0  0  0  0  0  0  0  0  0  0
   -0.3980   -2.3884    0.0000 C   0  0  0  0  0  0  0  0  0  0  0  0
   -0.3980   -3.2134    0.0000 C   0  0  0  0  0  0  0  0  0  0  0  0
    0.3165   -1.9759    0.0000 C   0  0  0  0  0  0  0  0  0  0  0  0
    1.0310   -2.3884    0.0000 C   0  0  0  0  0  0  0  0  0  0  0  0
    1.0310   -3.2134    0.0000 C   0  0  0  0  0  0  0  0  0  0  0  0
    0.3165   -3.6259    0.0000 C   0  0  0  0  0  0  0  0  0  0  0  0
    0.3165   -4.4509    0.0000 N   0  0  0  0  0  0  0  0  0  0  0  0
    1.0310   -4.8634    0.0000 C   0  0  0  0  0  0  0  0  0  0  0  0
    1.7454   -4.4509    0.0000 O   0  0  0  0  0  0  0  0  0  0  0  0
    1.0310   -5.6884    0.0000 C   0  0  0  0  0  0  0  0  0  0  0  0
    1.7454   -6.1009    0.0000 C   0  0  0  0  0  0  0  0  0  0  0  0
  2  1  1  0  0  0  0
  2  3  1  0  0  0  0
  4  3  1  0  0  0  0
  5  3  1  0  0  0  0
  5  6  1  0  0  0  0
  6  7  1  0  0  0  0
  1  7  1  0  0  0  0
  8  7  1  0  0  0  0
  9  8  1  0  0  0  0
  9 10  2  0  0  0  0
 10 11  1  0  0  0  0
 12 11  1  0  0  0  0
 13  8  2  0  0  0  0
 13 14  1  0  0  0  0
 14 15  2  0  0  0  0
 15 10  1  0  0  0  0
 15 16  1  0  0  0  0
 17 16  1  0  0  0  0
 17 18  2  0  0  0  0
 17 19  1  0  0  0  0
 20 19  2  0  0  0  0
 21 20  1  0  0  0  0
 23 21  2  0  0  0  0
 21 22  1  0  0  0  0
 23 18  1  0  0  0  0
 23 24  1  0  0  0  0
 25 24  1  0  0  0  0
 26 25  1  0  0  0  0
 26 30  2  0  0  0  0
 27 25  2  0  0  0  0
 28 27  1  0  0  0  0
 28 29  2  0  0  0  0
 29 30  1  0  0  0  0
 30 31  1  0  0  0  0
 32 31  1  0  0  0  0
 34 32  1  0  0  0  0
 32 33  2  0  0  0  0
 35 34  2  0  0  0  0
M  END
> <chembl_id>
CHEMBL1229592

$$$$

  SciTegic09291413392D

 47 52  0  0  0  0            999 V2000
   13.2156   -4.9318    0.0000 C   0  0
   13.2156   -5.7568    0.0000 C   0  0
   13.9301   -6.1693    0.0000 C   0  0
   14.6445   -5.7568    0.0000 C   0  0
   14.6445   -4.9318    0.0000 C   0  0
   13.9301   -4.5193    0.0000 C   0  0
   12.5011   -4.5193    0.0000 S   0  0
   12.9136   -3.8048    0.0000 O   0  0
   11.7867   -4.1068    0.0000 O   0  0
   12.0886   -5.2338    0.0000 N   0  0
   13.5176   -8.2639    0.0000 N   0  0
   14.3426   -8.2639    0.0000 N   0  0
   14.5975   -7.4792    0.0000 C   0  0
   13.9301   -6.9943    0.0000 C   0  0
   13.2626   -7.4792    0.0000 C   0  0
   13.0326   -8.9313    0.0000 C   0  0
   11.2636   -5.2338    0.0000 C   0  0
   10.8511   -5.9483    0.0000 C   0  0
   10.0261   -5.9483    0.0000 C   0  0
    9.6136   -5.2338    0.0000 C   0  0
   10.0261   -4.5193    0.0000 C   0  0
   10.8511   -4.5193    0.0000 C   0  0
    8.7886   -5.2338    0.0000 O   0  0
    7.5511   -3.0904    0.0000 N   0  0
    8.3761   -3.0904    0.0000 C   0  0
    8.7886   -3.8048    0.0000 C   0  0
    8.3761   -4.5193    0.0000 C   0  0
    7.5511   -4.5193    0.0000 C   0  0
    7.1386   -5.2338    0.0000 C   0  0
    6.3136   -5.2338    0.0000 C   0  0
    5.9011   -4.5193    0.0000 C   0  0
    6.3136   -3.8048    0.0000 C   0  0
    7.1386   -3.8048    0.0000 C   0  0
    5.0761   -4.5193    0.0000 O   0  0
    4.6636   -3.8048    0.0000 C   0  0
    3.8386   -3.8048    0.0000 C   0  0
    3.4261   -3.0904    0.0000 C   0  0
    2.6011   -3.0904    0.0000 N   0  0
    2.1886   -3.8048    0.0000 C   0  0
    1.3636   -3.8048    0.0000 C   0  0
    0.9511   -3.0904    0.0000 N   0  0
    1.3636   -2.3759    0.0000 C   0  0
    2.1886   -2.3759    0.0000 C   0  0
    0.1261   -3.0904    0.0000 C   0  0
    5.9011   -5.9483    0.0000 O   0  0
    5.0761   -5.9483    0.0000 C   0  0
    9.6136   -6.6627    0.0000 F   0  0
  1  2  1  0
  2  3  2  0
  3  4  1  0
  4  5  2  0
  5  6  1  0
  1  6  2  0
  7  8  2  0
  7  9  2  0
  7 10  1  0
  1  7  1  0
 11 12  1  0
 12 13  2  0
 13 14  1  0
 14 15  2  0
 11 15  1  0
 11 16  1  0
  3 14  1  0
 17 18  1  0
 18 19  2  0
 19 20  1  0
 20 21  2  0
 21 22  1  0
 17 22  2  0
 24 25  2  0
 25 26  1  0
 26 27  2  0
 27 28  1  0
 28 29  2  0
 29 30  1  0
 30 31  2  0
 31 32  1  0
 32 33  2  0
 24 33  1  0
 28 33  1  0
 35 36  1  0
 36 37  1  0
 34 35  1  0
 38 39  1  0
 39 40  1  0
 40 41  1  0
 41 42  1  0
 42 43  1  0
 38 43  1  0
 41 44  1  0
 37 38  1  0
 31 34  1  0
 45 46  1  0
 30 45  1  0
 23 27  1  0
 20 23  1  0
 19 47  1  0
 10 17  1  0
M  END
> <chembl_id>
CHEMBL3263962

$$$$

  SciTegic01181116592D

 31 34  0  0  0  0            999 V2000
   -0.4170  -22.9686    0.0000 N   0  0
    0.2995  -22.5552    0.0000 C   0  0
    0.2966  -21.7245    0.0000 N   0  0
   -0.4188  -21.3153    0.0000 C   0  0
   -0.4213  -20.4902    0.0000 N   0  0
   -1.1320  -22.5556    0.0000 C   0  0
   -1.1353  -21.7312    0.0000 C   0  0
   -1.9150  -22.8136    0.0000 S   0  0
   -2.4024  -22.1486    0.0000 C   0  0
   -1.9206  -21.4814    0.0000 C   0  0
   -2.2557  -20.7347    0.0000 C   0  0
   -3.0737  -20.6489    0.0000 C   0  0
   -3.5553  -21.3157    0.0000 N   0  0
   -3.2192  -22.0692    0.0000 C   0  0
    0.2920  -20.0756    0.0000 C   0  0  2  0  0  0
    0.2896  -19.2504    0.0000 C   0  0
   -4.3839  -21.3156    0.0000 C   0  0
   -4.7966  -22.0302    0.0000 O   0  0
   -4.7965  -20.6010    0.0000 C   0  0
   -4.3838  -19.8865    0.0000 C   0  0
   -4.7963  -19.1718    0.0000 C   0  0
   -4.3836  -18.4573    0.0000 N   0  0
   -3.5580  -18.4597    0.0000 C   0  0
   -4.7977  -17.7452    0.0000 C   0  0
    1.0078  -20.4859    0.0000 C   0  0
    1.0081  -21.3084    0.0000 C   0  0
    1.7232  -21.7187    0.0000 C   0  0
    2.4375  -21.3040    0.0000 C   0  0
    2.4324  -20.4746    0.0000 C   0  0
    1.7168  -20.0680    0.0000 C   0  0
    1.0029  -18.8357    0.0000 C   0  0
  2  3  1  0
  5 15  1  0
 15 16  1  6
  7 10  1  0
 13 17  1  0
  9  8  1  0
 17 18  2  0
  8  6  1  0
 17 19  1  0
  9 10  2  0
 19 20  2  0
  3  4  2  0
 20 21  1  0
  4  7  1  0
 21 22  1  0
 22 23  1  0
  1  2  2  0
  4  5  1  0
 22 24  1  0
  6  7  2  0
 15 25  1  0
  6  1  1  0
 25 26  2  0
  9 14  1  0
 26 27  1  0
 10 11  1  0
 27 28  2  0
 11 12  1  0
 28 29  1  0
 12 13  1  0
 29 30  2  0
 30 25  1  0
 13 14  1  0
 16 31  1  0
M  END
> <chembl_id>
CHEMBL1271562

$$$$

  SciTegic12131613492D

 27 31  0  0  0  0            999 V2000
    0.8955    2.0810    0.0000 C   0  0
    1.7138    1.2033    0.0000 C   0  0
    2.8908    1.4370    0.0000 C   0  0
   -1.0028    1.5132    0.0000 N   0  0
   -2.3155    0.7475    0.0000 C   0  0
   -2.3155   -0.7475    0.0000 N   0  0
   -1.0028   -1.5132    0.0000 C   0  0
    0.2917    0.7475    0.0000 C   0  0
    0.2917   -0.7475    0.0000 C   0  0
    1.7138   -1.2033    0.0000 C   0  0
    2.5889    0.0182    0.0000 O   0  0
   -3.6168    1.4950    0.0000 C   0  0
   -4.9669    0.8708    0.0000 C   0  0
   -5.9732    1.9832    0.0000 N   0  0
   -5.2262    3.2840    0.0000 N   0  0
   -3.7582    2.9755    0.0000 C   0  0
   -0.9971   -3.0138    0.0000 N   0  0
   -2.2935   -3.7700    0.0000 C   0  0
   -4.6304   -4.2656    0.0000 N   0  0
   -3.6203   -3.1531    0.0000 N   0  0
   -3.8857   -5.5600    0.0000 C   0  0
   -2.4241   -5.2456    0.0000 C   0  0
   -1.4032   -6.3500    0.0000 C   0  0
   -1.8757   -7.7944    0.0000 C   0  0
   -3.3373   -8.1089    0.0000 C   0  0
   -4.3620   -6.9866    0.0000 C   0  0
   -1.0725   -8.6860    0.0000 F   0  0
  2  1  1  0
  3  2  1  0
  8  4  1  0
  4  5  2  0
  5  6  1  0
  6  7  2  0
  7  9  1  0
  8  9  2  0
  9 10  1  0
 10 11  1  0
 11  2  1  0
  2  8  1  0
  5 12  1  0
 12 13  2  0
 13 14  1  0
 14 15  1  0
 15 16  2  0
 16 12  1  0
  7 17  1  0
 17 18  1  0
 18 22  1  0
 21 19  1  0
 19 20  1  0
 20 18  2  0
 21 22  2  0
 22 23  1  0
 23 24  2  0
 24 25  1  0
 25 26  2  0
 26 21  1  0
 24 27  1  0
M  END
> <chembl_id>
CHEMBL3758283

$$$$

  SciTegic06181315362D

 29 33  0  0  0  0            999 V2000
    4.2204  -11.3583    0.0000 C   0  0
    4.2196  -12.1776    0.0000 C   0  0
    4.9276  -12.5866    0.0000 C   0  0
    5.6373  -12.1772    0.0000 C   0  0
    5.6345  -11.3545    0.0000 C   0  0
    4.9258  -10.9492    0.0000 C   0  0
    6.3421  -12.5839    0.0000 C   0  0
    6.3421  -13.4022    0.0000 C   0  0
    7.0496  -13.8096    0.0000 N   0  0
    7.0456  -12.1747    0.0000 N   0  0
    8.5301  -12.3213    0.0000 N   0  0
    7.7537  -12.5784    0.0000 C   0  0
    7.7602  -13.3974    0.0000 C   0  0
    8.5417  -13.6430    0.0000 N   0  0
    9.0156  -12.9750    0.0000 C   0  0
    9.8327  -12.9665    0.0000 O   0  0
    8.9495  -11.6199    0.0000 C   0  0
    3.5411  -10.9043    0.0000 C   0  0
    3.5141  -10.0873    0.0000 N   0  0
    2.7278   -9.8614    0.0000 N   0  0
    2.2710  -10.5405    0.0000 C   0  0
    2.7767  -11.1837    0.0000 N   0  0
    9.7666  -11.6325    0.0000 C   0  0
   10.1861  -10.9312    0.0000 C   0  0
   11.0016  -10.9457    0.0000 C   0  0
   11.4209  -10.2484    0.0000 C   0  0
   11.0267   -9.5322    0.0000 O   0  0
   10.2087   -9.5176    0.0000 C   0  0
    9.7849  -10.2194    0.0000 C   0  0
  1  2  2  0
  2  3  1  0
  3  4  2  0
  4  5  1  0
  5  6  2  0
  6  1  1  0
  7  8  2  0
  8  9  1  0
  9 13  2  0
 12 10  2  0
 10  7  1  0
  4  7  1  0
 12 13  1  0
 11 12  1  0
 13 14  1  0
 14 15  1  0
 15 11  1  0
 15 16  2  0
 11 17  1  0
 19 20  1  0
 18 19  2  0
 20 21  1  0
 21 22  2  0
 22 18  1  0
  1 18  1  0
 17 23  1  0
 23 24  1  0
 24 25  1  0
 24 29  1  0
 25 26  1  0
 26 27  1  0
 27 28  1  0
 28 29  1  0
M  END
> <chembl_id>
CHEMBL2348865

$$$$

  SciTegic12151613472D

 25 28  0  0  0  0            999 V2000
    0.0000    1.4947    0.0000 C   0  0
   -1.2923    0.7474    0.0000 C   0  0
   -1.2923   -0.7474    0.0000 C   0  0
    0.0000   -1.5103    0.0000 N   0  0
   -2.7404    1.2145    0.0000 C   0  0
   -3.5656    0.0000    0.0000 C   0  0
   -2.7404   -1.1989    0.0000 S   0  0
   -5.0649   -0.0106    0.0000 C   0  0
   -5.8069   -1.3151    0.0000 N   0  0
   -7.3077   -1.3258    0.0000 C   0  0
   -8.0644   -0.0305    0.0000 C   0  0
   -9.5643   -0.0381    0.0000 C   0  0
  -10.3078   -1.3409    0.0000 C   0  0
   -9.5512   -2.6361    0.0000 C   0  0
   -8.0512   -2.6285    0.0000 C   0  0
   -3.1303    2.3494    0.0000 N   0  0
   -5.6719    1.0246    0.0000 O   0  0
    1.3235   -0.7629    0.0000 C   0  0
    1.3235    0.7785    0.0000 C   0  0
    2.7715    1.2145    0.0000 C   0  0
    3.5967    0.0000    0.0000 C   0  0
    2.7715   -1.2301    0.0000 C   0  0
    3.1726    2.3455    0.0000 O   0  0
   -7.4460   -3.6647    0.0000 C   0  0
  -10.1460   -3.6784    0.0000 Cl  0  0
 19  1  2  0
  1  2  1  0
  2  3  2  0
  3  4  1  0
 18  4  2  0
  5  6  2  0
  6  7  1  0
  2  5  1  0
  3  7  1  0
  8  9  1  0
  6  8  1  0
 10 11  1  0
 11 12  2  0
 12 13  1  0
 13 14  2  0
 14 15  1  0
 10 15  2  0
  9 10  1  0
  5 16  1  0
  8 17  2  0
 18 19  1  0
 19 20  1  0
 20 21  1  0
 21 22  1  0
 22 18  1  0
 20 23  2  0
 15 24  1  0
 14 25  1  0
M  END
> <chembl_id>
CHEMBL3771285

$$$$

  SciTegic04091414352D

 35 39  0  0  0  0            999 V2000
   12.9836   -8.4045    0.0000 N   0  0
   12.9775   -7.5869    0.0000 C   0  0
   13.6825   -7.1728    0.0000 C   0  0
   14.3937   -7.5763    0.0000 C   0  0
   14.3998   -8.3939    0.0000 C   0  0
   13.6947   -8.8080    0.0000 C   0  0
   12.2785   -8.8186    0.0000 C   0  0
   12.2846   -9.6363    0.0000 O   0  0
   11.5674   -8.4151    0.0000 N   0  0
   15.0987   -7.1622    0.0000 F   0  0
    8.7472  -10.0715    0.0000 N   0  0
    8.0360   -9.6680    0.0000 C   0  0
    8.0299   -8.8503    0.0000 N   0  0
    8.7350   -8.4362    0.0000 C   0  0
    9.4461   -8.8398    0.0000 C   0  0
   10.1512   -8.4257    0.0000 C   0  0
   10.8623   -8.8292    0.0000 C   0  0
   10.8684   -9.6468    0.0000 C   0  0
   10.1634  -10.0609    0.0000 C   0  0
    9.4522   -9.6574    0.0000 C   0  0
   11.5796  -10.0504    0.0000 O   0  0
   11.1863  -12.1293    0.0000 O   0  0
   10.9278  -11.3536    0.0000 C   0  0
   11.5857  -10.8680    0.0000 C   0  0  2  0  0  0
   12.2508  -11.3437    0.0000 C   0  0
   12.0039  -12.1232    0.0000 C   0  0
    8.7289   -7.6186    0.0000 N   0  0
    8.0177   -7.2150    0.0000 C   0  0
    7.3127   -7.6291    0.0000 C   0  0
    6.6015   -7.2256    0.0000 C   0  0
    6.5954   -6.4080    0.0000 C   0  0
    7.3005   -5.9939    0.0000 C   0  0
    8.0116   -6.3974    0.0000 C   0  0
    5.8843   -6.0044    0.0000 F   0  0
    5.8965   -7.6397    0.0000 Cl  0  0
  1  2  1  0
  2  3  1  0
  3  4  1  0
  4  5  1  0
  5  6  1  0
  1  6  1  0
  7  8  2  0
  7  9  1  0
  1  7  1  0
  4 10  1  0
 11 12  1  0
 12 13  2  0
 13 14  1  0
 14 15  2  0
 15 16  1  0
 16 17  2  0
 17 18  1  0
 18 19  2  0
 19 20  1  0
 11 20  2  0
 15 20  1  0
 22 23  1  0
 23 24  1  0
 24 25  1  0
 25 26  1  0
 22 26  1  0
 24 21  1  1
 18 21  1  0
 28 29  1  0
 29 30  2  0
 30 31  1  0
 31 32  2  0
 32 33  1  0
 28 33  2  0
 31 34  1  0
 30 35  1  0
 27 28  1  0
 14 27  1  0
  9 17  1  0
M  END
> <chembl_id>
CHEMBL3092297

$$$$

  SciTegic02271217242D

 25 28  0  0  0  0            999 V2000
    4.8282  -25.2449    0.0000 N   0  0
    5.5445  -24.8317    0.0000 C   0  0
    5.5417  -24.0013    0.0000 N   0  0
    4.8264  -23.5921    0.0000 C   0  0
    4.1135  -24.8321    0.0000 C   0  0
    4.1147  -24.0034    0.0000 C   0  0
    3.3268  -23.7460    0.0000 N   0  0
    2.8387  -24.4158    0.0000 C   0  0
    3.3248  -25.0870    0.0000 C   0  0
    4.8246  -22.7672    0.0000 N   0  0
    5.5380  -22.3533    0.0000 C   0  0
    6.2502  -22.7671    0.0000 C   0  0
    6.9632  -22.3538    0.0000 C   0  0
    6.9618  -21.5280    0.0000 C   0  0
    6.2415  -21.1173    0.0000 C   0  0
    5.5315  -21.5330    0.0000 C   0  0
    7.6783  -22.7649    0.0000 Cl  0  0
    7.6747  -21.1131    0.0000 O   0  0
    8.3905  -21.5230    0.0000 C   0  0
    9.1035  -21.1080    0.0000 C   0  0
    9.8162  -21.5200    0.0000 N   0  0
   10.5286  -21.1058    0.0000 C   0  0
   10.5262  -20.2800    0.0000 C   0  0
    9.8053  -19.8703    0.0000 C   0  0
    9.0958  -20.2869    0.0000 C   0  0
 11 12  2  0
  5  1  1  0
 12 13  1  0
  2  3  1  0
 13 14  2  0
 14 15  1  0
  3  4  2  0
 15 16  2  0
 16 11  1  0
  6  7  1  0
 13 17  1  0
  7  8  1  0
 14 18  1  0
  8  9  2  0
 18 19  1  0
  9  5  1  0
 19 20  1  0
  4  6  1  0
 20 21  2  0
  4 10  1  0
 21 22  1  0
  5  6  2  0
 22 23  2  0
 10 11  1  0
 23 24  1  0
  1  2  2  0
 24 25  2  0
 25 20  1  0
M  END
> <chembl_id>
CHEMBL1923001

$$$$

  SciTegic04301217312D

 24 26  0  0  0  0            999 V2000
   11.6137    2.4798    0.0000 N   0  0
   11.6125    1.6522    0.0000 C   0  0
   12.3274    1.2393    0.0000 N   0  0
   13.0441    1.6527    0.0000 C   0  0
   13.0412    2.4834    0.0000 C   0  0
   12.3256    2.8926    0.0000 C   0  0
   13.7594    1.2412    0.0000 N   0  0
   10.8975    1.2402    0.0000 N   0  0
   10.1833    1.6534    0.0000 C   0  0
   14.4733    1.6550    0.0000 C   0  0
   10.1885    2.4784    0.0000 C   0  0
    9.4750    2.8914    0.0000 C   0  0
    8.7590    2.4794    0.0000 C   0  0
    8.7610    1.6500    0.0000 C   0  0
    9.4751    1.2406    0.0000 C   0  0
   15.1853    1.2430    0.0000 C   0  0
   15.8987    1.6561    0.0000 C   0  0
   15.8979    2.4822    0.0000 C   0  0
   15.1776    2.8934    0.0000 C   0  0
   14.4670    2.4781    0.0000 C   0  0
    9.4781    0.4154    0.0000 O   0  0
    8.7650    0.0003    0.0000 C   0  0
   15.1854    0.4178    0.0000 O   0  0
   15.9000    0.0053    0.0000 C   0  0
 11 12  1  0
  6  1  1  0
 12 13  2  0
  1  2  2  0
 13 14  1  0
  4  7  1  0
 14 15  2  0
 15  9  1  0
  3  4  2  0
 10 16  2  0
  2  8  1  0
 16 17  1  0
 17 18  2  0
  8  9  1  0
 18 19  1  0
  4  5  1  0
 19 20  2  0
 20 10  1  0
  7 10  1  0
 15 21  1  0
  2  3  1  0
 21 22  1  0
  9 11  2  0
 16 23  1  0
  5  6  2  0
 23 24  1  0
M  END
> <chembl_id>
CHEMBL1947046

$$$$

  SciTegic05061409512D

 26 29  0  0  0  0            999 V2000
   13.2314  -22.4109    0.0000 N   0  0
   13.9367  -22.0064    0.0000 C   0  0
   13.9367  -21.1892    0.0000 N   0  0
   13.2314  -20.7765    0.0000 C   0  0
   12.5261  -22.0064    0.0000 C   0  0
   12.5216  -21.1893    0.0000 C   0  0
   11.7504  -22.2631    0.0000 S   0  0
   11.2664  -21.6047    0.0000 C   0  0
   11.7418  -20.9449    0.0000 C   0  0
   11.4099  -20.2072    0.0000 C   0  0
   10.6015  -20.1233    0.0000 C   0  0
   10.1261  -20.7832    0.0000 N   0  0
   10.4590  -21.5270    0.0000 C   0  0
   13.2325  -19.9593    0.0000 N   0  0
    9.3131  -20.7001    0.0000 C   0  0
    8.9785  -19.9546    0.0000 C   0  0
    8.8347  -21.3627    0.0000 O   0  0
    9.4569  -19.2920    0.0000 C   0  0
   13.9408  -19.5516    0.0000 C   0  0
   14.6472  -19.9628    0.0000 C   0  0
   15.3549  -19.5558    0.0000 C   0  0
   15.3565  -18.7378    0.0000 C   0  0
   14.6443  -18.3284    0.0000 C   0  0
   13.9395  -18.7377    0.0000 C   0  0
   13.2309  -18.3305    0.0000 F   0  0
   14.6426  -17.5112    0.0000 C   0  0
  6  4  1  0
  5  1  1  0
  1  2  2  0
  2  3  1  0
  3  4  2  0
  5  6  2  0
  6  9  1  0
  8  7  1  0
  7  5  1  0
  8  9  2  0
  8 13  1  0
  9 10  1  0
 10 11  1  0
 11 12  1  0
 12 13  1  0
  4 14  1  0
 12 15  1  0
 15 16  1  0
 15 17  2  0
 16 18  2  0
 14 19  1  0
 19 20  2  0
 20 21  1  0
 21 22  2  0
 22 23  1  0
 23 24  2  0
 24 19  1  0
 24 25  1  0
 23 26  1  0
M  END
> <chembl_id>
CHEMBL3133895

$$$$

  SciTegic08011209522D

 35 38  0  0  0  0            999 V2000
   12.9861    3.0584    0.0000 N   0  0
   12.9849    2.2310    0.0000 C   0  0
   13.6997    1.8181    0.0000 N   0  0
   13.6979    3.4711    0.0000 C   0  0
   14.4133    3.0620    0.0000 C   0  0
   14.4167    2.2289    0.0000 C   0  0
   15.1359    1.8176    0.0000 N   0  0
   15.8563    2.2348    0.0000 C   0  0
   15.8529    3.0679    0.0000 N   0  0
   15.1291    3.4838    0.0000 C   0  0
   15.1399    0.9961    0.0000 C   0  0
   14.4249    0.5822    0.0000 C   0  0
   14.4268   -0.2420    0.0000 C   0  0
   15.1429   -0.6534    0.0000 C   0  0
   15.8586   -0.2345    0.0000 C   0  0
   15.8532    0.5884    0.0000 C   0  0
   12.2701    1.8191    0.0000 N   0  0
   12.2695    0.9941    0.0000 C   0  0
   11.5546    0.5837    0.0000 C   0  0
   11.5536   -0.2405    0.0000 C   0  0
   12.2682   -0.6544    0.0000 C   0  0
   12.9854   -0.2381    0.0000 C   0  0
   12.9829    0.5848    0.0000 C   0  0
   16.5719    1.8243    0.0000 O   0  0
   16.5757   -0.6425    0.0000 N   0  0
   16.5808   -1.4675    0.0000 C   0  0
   17.2979   -1.8755    0.0000 C   0  0
   15.8690   -1.8845    0.0000 O   0  0
   17.3030   -2.7005    0.0000 C   0  0
   12.2687   -1.4794    0.0000 N   0  0
   16.5661    3.4826    0.0000 C   0  0
   11.5518   -1.8890    0.0000 C   0  0
   12.9824   -1.8871    0.0000 C   0  0
   10.8409    0.9975    0.0000 O   0  0
   10.8424    1.8225    0.0000 C   0  0
  4  1  1  0
  2 17  1  0
  5 10  1  0
 17 18  1  0
  6  7  1  0
 18 19  2  0
  7  8  1  0
 19 20  1  0
  8  9  1  0
 20 21  2  0
  9 10  1  0
 21 22  1  0
  5  6  1  0
 22 23  2  0
 23 18  1  0
  8 24  2  0
 11 12  2  0
 15 25  1  0
  2  3  1  0
 25 26  1  0
 12 13  1  0
 26 27  1  0
  3  6  2  0
 26 28  2  0
 13 14  2  0
 27 29  2  0
  1  2  2  0
 21 30  1  0
 14 15  1  0
  9 31  1  0
 30 32  1  0
  5  4  2  0
 15 16  2  0
 30 33  1  0
 16 11  1  0
 19 34  1  0
  7 11  1  0
 34 35  1  0
M  END
> <chembl_id>
CHEMBL2032377

$$$$

  SciTegic12171313022D

 34 37  0  0  0  0            999 V2000
    9.9782  -12.8645    0.0000 C   0  0
    9.9771  -13.6841    0.0000 C   0  0
   10.6851  -14.0930    0.0000 N   0  0
   11.3948  -13.6836    0.0000 C   0  0
   11.3920  -12.8609    0.0000 N   0  0
   10.6833  -12.4557    0.0000 C   0  0
    9.2704  -12.4561    0.0000 Cl  0  0
   10.6814  -11.6386    0.0000 C   0  0
   11.3411  -11.1562    0.0000 C   0  0
   11.0862  -10.3798    0.0000 N   0  0
   10.0189  -11.1602    0.0000 C   0  0
   10.2718  -10.3831    0.0000 N   0  0
    9.7258   -9.7776    0.0000 C   0  0
    8.9268   -9.9479    0.0000 C   0  0
    8.6767  -10.7292    0.0000 C   0  0
    9.2244  -11.3314    0.0000 C   0  0
   12.1031  -14.0911    0.0000 N   0  0
   12.8102  -13.6814    0.0000 C   0  0
   13.5152  -14.0893    0.0000 C   0  0
   14.2218  -13.6803    0.0000 C   0  0
   12.8040  -12.8663    0.0000 C   0  0
   13.5153  -14.9065    0.0000 O   0  0
   12.8076  -15.3152    0.0000 C   0  0
   13.5038  -12.4541    0.0000 C   0  0
   14.2171  -12.8630    0.0000 C   0  0
   13.4990  -11.6369    0.0000 N   0  0
   14.2043  -11.2242    0.0000 C   0  0
   14.1995  -10.4070    0.0000 C   0  0
   14.9144  -11.6286    0.0000 O   0  0
   14.9048   -9.9943    0.0000 C   0  0
   14.9000   -9.1771    0.0000 C   0  0
   15.6053   -8.7644    0.0000 N   0  0
   15.6005   -7.9509    0.0000 C   0  0
   16.3154   -9.1688    0.0000 C   0  0
  1  2  2  0
  2  3  1  0
  3  4  2  0
  4  5  1  0
  5  6  2  0
  6  1  1  0
  1  7  1  0
  8  9  1  0
  9 10  2  0
 10 12  1  0
 11  8  2  0
  6  8  1  0
 11 12  1  0
 12 13  1  0
 13 14  2  0
 14 15  1  0
 15 16  2  0
 16 11  1  0
  4 17  1  0
 17 18  1  0
 18 19  2  0
 19 20  1  0
 20 25  2  0
 24 21  2  0
 21 18  1  0
 19 22  1  0
 22 23  1  0
 24 25  1  0
 24 26  1  0
 26 27  1  0
 27 28  1  0
 27 29  2  0
 28 30  2  0
 30 31  1  0
 31 32  1  0
 32 33  1  0
 32 34  1  0
M  END
> <chembl_id>
CHEMBL2426288

$$$$

  SciTegic09291413392D

 46 51  0  0  0  0            999 V2000
   12.5049   -8.7450    0.0000 C   0  0
   12.9174   -8.0305    0.0000 C   0  0
   13.7424   -8.0305    0.0000 C   0  0
   14.1549   -8.7450    0.0000 C   0  0
   13.7424   -9.4595    0.0000 C   0  0
   12.9174   -9.4595    0.0000 C   0  0
   11.6799   -8.7450    0.0000 S   0  0
   10.8549   -8.7450    0.0000 O   0  0
   11.6799   -9.5700    0.0000 O   0  0
   11.6799   -7.9200    0.0000 N   0  0
   14.4324   -6.0103    0.0000 N   0  0
   15.1469   -6.4228    0.0000 N   0  0
   14.9753   -7.2298    0.0000 C   0  0
   14.1549   -7.3160    0.0000 C   0  0
   13.8193   -6.5624    0.0000 C   0  0
   14.3462   -5.1898    0.0000 C   0  0
   10.9654   -7.5075    0.0000 C   0  0
   10.9654   -6.6825    0.0000 C   0  0
   10.2509   -6.2700    0.0000 C   0  0
    9.5364   -6.6825    0.0000 C   0  0
    9.5364   -7.5075    0.0000 C   0  0
   10.2509   -7.9200    0.0000 C   0  0
    8.8220   -6.2700    0.0000 O   0  0
    6.6786   -7.5075    0.0000 N   0  0
    7.3930   -7.9200    0.0000 C   0  0
    8.1075   -7.5075    0.0000 C   0  0
    8.1075   -6.6825    0.0000 C   0  0
    7.3930   -6.2700    0.0000 C   0  0
    7.3930   -5.4450    0.0000 C   0  0
    6.6786   -5.0325    0.0000 C   0  0
    5.9641   -5.4450    0.0000 C   0  0
    5.9641   -6.2700    0.0000 C   0  0
    6.6786   -6.6825    0.0000 C   0  0
    5.2496   -5.0325    0.0000 O   0  0
    4.5352   -5.4450    0.0000 C   0  0
    3.8207   -5.0325    0.0000 C   0  0
    3.1062   -5.4450    0.0000 C   0  0
    2.3917   -5.0325    0.0000 N   0  0
    2.3917   -4.2075    0.0000 C   0  0
    1.6773   -3.7950    0.0000 C   0  0
    0.9628   -4.2075    0.0000 O   0  0
    0.9628   -5.0325    0.0000 C   0  0
    1.6773   -5.4450    0.0000 C   0  0
    6.6786   -4.2075    0.0000 O   0  0
    5.9641   -3.7950    0.0000 C   0  0
   10.2509   -5.4450    0.0000 F   0  0
  1  2  1  0
  2  3  2  0
  3  4  1  0
  4  5  2  0
  5  6  1  0
  1  6  2  0
  7  8  2  0
  7  9  2  0
  7 10  1  0
  1  7  1  0
 11 12  1  0
 12 13  2  0
 13 14  1  0
 14 15  2  0
 11 15  1  0
 11 16  1  0
  3 14  1  0
 17 18  1  0
 18 19  2  0
 19 20  1  0
 20 21  2  0
 21 22  1  0
 17 22  2  0
 24 25  2  0
 25 26  1  0
 26 27  2  0
 27 28  1  0
 28 29  2  0
 29 30  1  0
 30 31  2  0
 31 32  1  0
 32 33  2  0
 24 33  1  0
 28 33  1  0
 35 36  1  0
 36 37  1  0
 34 35  1  0
 38 39  1  0
 39 40  1  0
 40 41  1  0
 41 42  1  0
 42 43  1  0
 38 43  1  0
 37 38  1  0
 31 34  1  0
 44 45  1  0
 30 44  1  0
 23 27  1  0
 20 23  1  0
 19 46  1  0
 10 17  1  0
M  END
> <chembl_id>
CHEMBL3263961

$$$$

  SciTegic05061409512D

 24 26  0  0  0  0            999 V2000
   20.7102   -4.8976    0.0000 N   0  0
   21.4198   -4.4881    0.0000 C   0  0
   21.4170   -3.6655    0.0000 N   0  0
   20.7084   -3.2602    0.0000 C   0  0
   20.0021   -4.4886    0.0000 C   0  0
   20.0044   -3.6667    0.0000 C   0  0
   19.2949   -3.2556    0.0000 C   0  0
   18.5826   -3.6652    0.0000 C   0  0
   18.5843   -4.4902    0.0000 C   0  0
   19.2944   -4.8977    0.0000 C   0  0
   20.7067   -2.4430    0.0000 N   0  0
   17.8749   -3.2567    0.0000 N   0  0
   17.1672   -3.6655    0.0000 C   0  0
   16.4594   -3.2570    0.0000 C   0  0
   17.1674   -4.4826    0.0000 O   0  0
   15.7518   -3.6657    0.0000 C   0  0
   21.4135   -2.0329    0.0000 C   0  0
   22.1224   -2.4451    0.0000 C   0  0
   22.8288   -2.0357    0.0000 C   0  0
   22.8276   -1.2177    0.0000 C   0  0
   22.1140   -0.8107    0.0000 C   0  0
   21.4106   -1.2225    0.0000 C   0  0
   23.5339   -0.8067    0.0000 Br  0  0
   20.7009   -0.8173    0.0000 C   0  0
  5  1  1  0
  1  2  2  0
  2  3  1  0
  3  4  2  0
  4  6  1  0
  5  6  1  0
  6  7  2  0
  7  8  1  0
  8  9  2  0
  9 10  1  0
 10  5  2  0
  4 11  1  0
  8 12  1  0
 12 13  1  0
 13 14  1  0
 13 15  2  0
 14 16  2  0
 11 17  1  0
 17 18  2  0
 18 19  1  0
 19 20  2  0
 20 21  1  0
 21 22  2  0
 22 17  1  0
 20 23  1  0
 22 24  1  0
M  END
> <chembl_id>
CHEMBL3133902

$$$$

  SciTegic01181116592D

 33 36  0  0  0  0            999 V2000
    8.5206   -8.4694    0.0000 N   0  0
    9.2370   -8.0560    0.0000 C   0  0
    9.2341   -7.2255    0.0000 N   0  0
    8.5188   -6.8164    0.0000 C   0  0
    8.5163   -5.9914    0.0000 N   0  0
    7.8057   -8.0565    0.0000 C   0  0
    7.8024   -7.2322    0.0000 C   0  0
    7.0228   -8.3143    0.0000 S   0  0
    6.5355   -7.6495    0.0000 C   0  0
    7.0172   -6.9823    0.0000 C   0  0
    6.6821   -6.2358    0.0000 C   0  0
    5.8643   -6.1501    0.0000 C   0  0
    5.3827   -6.8168    0.0000 N   0  0
    5.7188   -7.5701    0.0000 C   0  0
    9.2295   -5.5767    0.0000 C   0  0  1  0  0  0
    9.9452   -5.9871    0.0000 C   0  0
    9.2271   -4.7517    0.0000 C   0  0
    9.9455   -6.8094    0.0000 C   0  0
   10.6604   -7.2197    0.0000 C   0  0
   11.3746   -6.8050    0.0000 C   0  0
   11.3695   -5.9758    0.0000 C   0  0
   10.6540   -5.5692    0.0000 C   0  0
    4.5542   -6.8167    0.0000 C   0  0
    4.1416   -7.5311    0.0000 O   0  0
    4.1417   -6.1021    0.0000 C   0  0
    4.5543   -5.3877    0.0000 C   0  0
    9.9403   -4.3371    0.0000 O   0  0
    4.1419   -4.6732    0.0000 C   0  0
    4.5545   -3.9588    0.0000 N   0  0
    4.1421   -3.2443    0.0000 C   0  0
    5.3795   -3.9589    0.0000 C   0  0
    5.7919   -4.6734    0.0000 C   0  0
    3.3171   -3.2442    0.0000 C   0  0
 15 16  1  0
  7 10  1  0
 15 17  1  6
  9  8  1  0
 16 18  2  0
  8  6  1  0
 18 19  1  0
  9 10  2  0
 19 20  2  0
  3  4  2  0
 20 21  1  0
  4  7  1  0
 21 22  2  0
 22 16  1  0
  1  2  2  0
 13 23  1  0
  4  5  1  0
 23 24  2  0
  6  7  2  0
 23 25  1  0
  6  1  1  0
 25 26  2  0
  9 14  1  0
 17 27  1  0
 10 11  1  0
 26 28  1  0
 11 12  1  0
 28 29  1  0
 12 13  1  0
 29 30  1  0
 13 14  1  0
 29 31  1  0
  2  3  1  0
 31 32  1  0
  5 15  1  0
 30 33  1  0
M  END
> <chembl_id>
CHEMBL1272324

$$$$

  SciTegic01161211252D

 31 33  0  0  0  0            999 V2000
    3.9861  -26.7541    0.0000 C   0  0
    3.9849  -27.5815    0.0000 C   0  0
    4.6997  -27.9944    0.0000 C   0  0
    4.6979  -26.3414    0.0000 C   0  0
    5.4133  -26.7505    0.0000 N   0  0
    5.4181  -27.5769    0.0000 C   0  0
    6.2056  -27.8278    0.0000 N   0  0
    6.6876  -27.1563    0.0000 C   0  0
    6.1978  -26.4906    0.0000 C   0  0
    6.2148  -25.6675    0.0000 C   0  0
    6.9367  -25.2681    0.0000 O   0  0
    5.5080  -25.2421    0.0000 N   0  0
    5.5230  -24.4172    0.0000 C   0  0
    6.2495  -24.0212    0.0000 C   0  0
    6.2648  -23.1971    0.0000 C   0  0
    5.5596  -22.7780    0.0000 C   0  0
    4.8331  -23.1746    0.0000 C   0  0
    4.8213  -23.9974    0.0000 C   0  0
    4.1008  -24.3992    0.0000 Cl  0  0
    3.2722  -26.3419    0.0000 C   0  0
    3.2740  -25.5160    0.0000 C   0  0
    2.5635  -25.1038    0.0000 C   0  0
    1.8467  -25.5129    0.0000 N   0  0
    1.8450  -26.3389    0.0000 C   0  0
    2.5600  -26.7557    0.0000 C   0  0
    8.4552  -23.1125    0.0000 C   0  0
    9.1697  -22.7000    0.0000 C   0  0
    7.7409  -22.7000    0.0000 O   0  0
    8.4552  -23.9375    0.0000 O   0  0
    9.8842  -23.1125    0.0000 O   0  0
    9.1697  -21.8750    0.0000 O   0  0
 10 12  1  0
  2  3  2  0
 12 13  1  0
  3  6  1  0
 13 14  2  0
  1  2  1  0
 14 15  1  0
  5  4  1  0
 15 16  2  0
  6  7  2  0
 16 17  1  0
  7  8  1  0
 17 18  2  0
 18 13  1  0
  8  9  2  0
 18 19  1  0
 20 21  1  0
  9  5  1  0
  4  1  2  0
  9 10  1  0
  5  6  1  0
 10 11  2  0
 20 25  1  0
 21 22  1  0
 22 23  1  0
 23 24  1  0
 24 25  1  0
  1 20  1  0
 26 27  1  0
 26 29  1  0
 26 28  2  0
 27 30  2  0
 27 31  1  0
M  END
> <chembl_id>
CHEMBL1077739

$$$$

  SciTegic09261414462D

 41 45  0  0  0  0            999 V2000
    4.7408  -15.3821    0.0000 C   0  0
    4.7396  -16.2017    0.0000 C   0  0
    5.4477  -16.6106    0.0000 C   0  0
    6.1573  -16.2012    0.0000 C   0  0
    6.1545  -15.3785    0.0000 C   0  0
    5.4459  -14.9733    0.0000 C   0  0
    4.0350  -14.9739    0.0000 N   0  0
    4.0362  -14.1556    0.0000 C   0  0
    3.3292  -13.7472    0.0000 C   0  0
    2.6206  -14.1561    0.0000 N   0  0
    2.6234  -14.9775    0.0000 C   0  0
    3.3310  -15.3821    0.0000 C   0  0
    6.8657  -16.6087    0.0000 N   0  0
    7.5727  -16.1990    0.0000 C   0  0
    8.2778  -16.6069    0.0000 N   0  0
    8.9843  -16.1979    0.0000 C   0  0
    8.9835  -15.3798    0.0000 C   0  0
    8.2702  -14.9725    0.0000 C   0  0
    7.5665  -15.3839    0.0000 N   0  0
    8.2660  -14.1553    0.0000 O   0  0
    8.9716  -13.7431    0.0000 C   0  0
    9.6784  -14.1484    0.0000 C   0  0
   10.3835  -13.7369    0.0000 C   0  0
   10.3798  -12.9189    0.0000 C   0  0
    9.6650  -12.5141    0.0000 C   0  0
    8.9628  -12.9279    0.0000 C   0  0
   11.0931  -14.1422    0.0000 N   0  0
   11.7989  -13.7304    0.0000 C   0  0
   12.5085  -14.1357    0.0000 C   0  0
   11.7951  -12.9132    0.0000 O   0  0
    9.6900  -14.9692    0.0000 Cl  0  0
    5.4475  -17.4278    0.0000 O   0  0
    4.7397  -17.8363    0.0000 C   0  0
    1.9123  -13.7486    0.0000 C   0  0
   13.2143  -13.7238    0.0000 C   0  0
   13.9239  -14.1292    0.0000 N   0  0
   13.9227  -14.9455    0.0000 C   0  0
   14.6282  -15.3507    0.0000 C   0  0
   15.3364  -14.9424    0.0000 O   0  0
   15.3346  -14.1242    0.0000 C   0  0
   14.6246  -13.7145    0.0000 C   0  0
  1  2  2  0
  2  3  1  0
  3  4  2  0
  4  5  1  0
  5  6  2  0
  6  1  1  0
  7  8  1  0
  8  9  1  0
  9 10  1  0
 10 11  1  0
 11 12  1  0
 12  7  1  0
  1  7  1  0
  4 13  1  0
 13 14  1  0
 14 15  2  0
 15 16  1  0
 16 17  2  0
 17 18  1  0
 18 19  2  0
 19 14  1  0
 18 20  1  0
 20 21  1  0
 21 22  2  0
 22 23  1  0
 23 24  2  0
 24 25  1  0
 25 26  2  0
 26 21  1  0
 23 27  1  0
 27 28  1  0
 28 29  1  0
 28 30  2  0
 17 31  1  0
  3 32  1  0
 32 33  1  0
 10 34  1  0
 29 35  1  0
 35 36  1  0
 36 37  1  0
 36 41  1  0
 37 38  1  0
 38 39  1  0
 39 40  1  0
 40 41  1  0
M  END
> <chembl_id>
CHEMBL3237933

$$$$

  SciTegic01161211252D

 35 38  0  0  0  0            999 V2000
   11.8111  -27.1708    0.0000 C   0  0
   11.8099  -27.9982    0.0000 C   0  0
   12.5247  -28.4110    0.0000 C   0  0
   13.2412  -27.9977    0.0000 C   0  0
   13.2383  -27.1672    0.0000 C   0  0
   12.5229  -26.7580    0.0000 C   0  0
   11.0965  -26.7585    0.0000 C   0  0
   11.0963  -25.9335    0.0000 O   0  0
   10.3821  -27.1711    0.0000 N   0  0
   11.0951  -28.4101    0.0000 O   0  0
   14.0230  -26.9131    0.0000 N   0  0
   14.6922  -27.4004    0.0000 N   0  0
   15.3609  -26.9156    0.0000 N   0  0
   15.1052  -26.1300    0.0000 C   0  0
   14.2791  -26.1320    0.0000 C   0  0
   15.5286  -25.4239    0.0000 C   0  0
   16.3546  -25.4346    0.0000 C   0  0
   16.7751  -24.7256    0.0000 C   0  0
   16.3706  -24.0056    0.0000 C   0  0
   15.5413  -23.9989    0.0000 C   0  0
   15.1246  -24.7085    0.0000 C   0  0
    9.6676  -26.7588    0.0000 C   0  0
    9.6710  -25.9332    0.0000 C   0  0
    8.9573  -25.5210    0.0000 C   0  0
    8.2419  -25.9337    0.0000 C   0  0
    8.2448  -26.7629    0.0000 C   0  0
    8.9591  -27.1715    0.0000 C   0  0
    8.9575  -24.6960    0.0000 C   0  0
    9.6721  -24.2836    0.0000 F   0  0
    8.2431  -24.2833    0.0000 F   0  0
    8.9500  -23.8708    0.0000 F   0  0
   15.1344  -23.2813    0.0000 O   0  0
   15.5524  -22.5700    0.0000 C   0  0
   17.6000  -24.7353    0.0000 O   0  0
   18.0209  -24.0258    0.0000 C   0  0
 17 18  1  0
  7  9  1  0
 18 19  2  0
  4  5  1  0
 19 20  1  0
  2 10  1  0
 20 21  2  0
 21 16  1  0
 14 16  1  0
  2  3  1  0
  9 22  1  0
  5 11  1  0
 22 23  2  0
 12 13  2  0
 23 24  1  0
  5  6  2  0
 24 25  2  0
  6  1  1  0
 25 26  1  0
  1  2  2  0
 26 27  2  0
 27 22  1  0
  1  7  1  0
 24 28  1  0
 11 12  1  0
 28 29  1  0
 13 14  1  0
 28 30  1  0
 14 15  2  0
 28 31  1  0
 15 11  1  0
 20 32  1  0
  3  4  2  0
 32 33  1  0
  7  8  2  0
 18 34  1  0
 16 17  2  0
 34 35  1  0
M  END
> <chembl_id>
CHEMBL1169635

$$$$

  SciTegic04201614442D

 39 43  0  0  0  0            999 V2000
   -2.6111    0.7486    0.0000 N   0  0
   -2.6111   -0.7486    0.0000 C   0  0
   -1.2964   -1.4973    0.0000 N   0  0
   -1.2964    1.4973    0.0000 C   0  0
    0.0000    0.7486    0.0000 C   0  0
    0.0000   -0.7486    0.0000 C   0  0
    1.2964   -1.4973    0.0000 N   0  0
    1.2964    1.4973    0.0000 C   0  0
    2.5929    0.7486    0.0000 C   0  0
    2.5929   -0.7486    0.0000 C   0  0
    1.2964   -2.9980    0.0000 C   0  0
   -0.0014   -3.7503    0.0000 C   0  0
    0.0011   -5.2503    0.0000 C   0  0
    1.3014   -5.9981    0.0000 C   0  0
    2.5992   -5.2460    0.0000 C   0  0
    2.5967   -3.7460    0.0000 C   0  0
    3.9017   -5.9916    0.0000 N   0  0
    5.1991   -5.2372    0.0000 C   0  0
    6.5017   -5.9828    0.0000 C   0  0
    5.1951   -4.0372    0.0000 O   0  0
    7.5390   -5.3796    0.0000 C   0  0
   -3.9091   -1.5019    0.0000 N   0  0
   -3.9067   -3.0027    0.0000 C   0  0
   -5.2030   -3.7575    0.0000 C   0  0
   -5.1976   -5.2575    0.0000 C   0  0
   -3.8958   -6.0028    0.0000 C   0  0
   -2.5995   -5.2481    0.0000 C   0  0
   -2.6050   -3.7481    0.0000 C   0  0
   -3.8904   -7.5035    0.0000 N   0  0
   -5.1855   -8.2604    0.0000 C   0  0
   -5.1777   -9.7604    0.0000 C   0  0
   -3.8747  -10.5036    0.0000 N   0  0
   -2.5796   -9.7469    0.0000 C   0  0
   -2.5874   -8.2469    0.0000 C   0  0
   -6.5071   -3.0146    0.0000 O   0  0
   -7.5432   -3.6199    0.0000 C   0  0
    3.6321   -1.3486    0.0000 O   0  0
    1.2964    2.6973    0.0000 C   0  0
   -3.8685  -11.7036    0.0000 C   0  0
  1  2  2  0
  2  3  1  0
  3  6  2  0
  5  4  2  0
  4  1  1  0
  5  6  1  0
  5  8  1  0
  6  7  1  0
  7 10  1  0
  9  8  2  0
  9 10  1  0
 11 12  2  0
 12 13  1  0
 13 14  2  0
 14 15  1  0
 15 16  2  0
 16 11  1  0
  7 11  1  0
 15 17  1  0
 17 18  1  0
 18 19  1  0
 18 20  2  0
 19 21  2  0
  2 22  1  0
 22 23  1  0
 23 24  2  0
 24 25  1  0
 25 26  2  0
 26 27  1  0
 27 28  2  0
 28 23  1  0
 29 30  1  0
 29 34  1  0
 30 31  1  0
 31 32  1  0
 32 33  1  0
 33 34  1  0
 26 29  1  0
 35 36  1  0
 24 35  1  0
 10 37  2  0
  8 38  1  0
 32 39  1  0
M  END
> <chembl_id>
CHEMBL3633143

$$$$

  SciTegic12201616162D

 30 33  0  0  0  0            999 V2000
    3.8942   -1.4964    0.0000 N   0  0
    5.1929   -0.7441    0.0000 C   0  0
    5.1908    0.4559    0.0000 O   0  0
    6.4942   -1.4919    0.0000 N   0  0
    7.7928   -0.7396    0.0000 C   0  0
    9.0941   -1.4873    0.0000 C   0  0
   12.9858    0.7740    0.0000 O   0  0
   12.9909   -0.7260    0.0000 C   0  0
   11.6945   -1.4805    0.0000 C   0  0
   10.3928   -0.7351    0.0000 N   0  0
   10.3877    0.7650    0.0000 C   0  0
   11.6841    1.5195    0.0000 C   0  0
   -1.2964    1.4973    0.0000 N   0  0
   -2.6111    0.7486    0.0000 C   0  0
   -2.6111   -0.7486    0.0000 N   0  0
   -1.2964   -1.4973    0.0000 C   0  0
    0.0000   -0.7486    0.0000 C   0  0
    1.2964   -1.4973    0.0000 C   0  0
    2.5929   -0.7486    0.0000 C   0  0
    2.5929    0.7486    0.0000 C   0  0
    1.2964    1.4973    0.0000 C   0  0
    0.0000    0.7486    0.0000 C   0  0
   -1.2907   -2.9981    0.0000 N   0  0
   -2.5870   -3.7544    0.0000 C   0  0
   -2.5835   -5.2544    0.0000 C   0  0
   -3.8807   -6.0076    0.0000 C   0  0
   -5.1815   -5.2608    0.0000 C   0  0
   -5.1852   -3.7608    0.0000 C   0  0
   -3.8880   -3.0076    0.0000 C   0  0
   -3.8777   -7.2076    0.0000 Br  0  0
  1  2  1  0
  2  3  2  0
  2  4  1  0
  5  6  1  0
  7  8  1  0
  8  9  1  0
  9 10  1  0
 10 11  1  0
 11 12  1  0
  7 12  1  0
  6 10  1  0
  4  5  1  0
 13 14  1  0
 14 15  2  0
 15 16  1  0
 16 17  2  0
 17 18  1  0
 18 19  2  0
 19 20  1  0
 20 21  2  0
 21 22  1  0
 13 22  2  0
 17 22  1  0
 24 25  1  0
 25 26  2  0
 26 27  1  0
 27 28  2  0
 28 29  1  0
 24 29  2  0
 26 30  1  0
 23 24  1  0
 16 23  1  0
  1 19  1  0
M  END
> <chembl_id>
CHEMBL3814320

$$$$

  SciTegic06051313552D

 28 32  0  0  0  0            999 V2000
    1.3317  -24.8995    0.0000 C   0  0
    1.3305  -25.7191    0.0000 C   0  0
    2.0386  -26.1280    0.0000 C   0  0
    2.7482  -25.7186    0.0000 C   0  0
    2.7454  -24.8959    0.0000 C   0  0
    2.0368  -24.4907    0.0000 C   0  0
    3.4261  -24.4438    0.0000 C   0  0
    4.1934  -24.7250    0.0000 C   0  0
    4.6979  -24.0821    0.0000 C   0  0
    4.2420  -23.4042    0.0000 N   0  0
    3.4564  -23.6272    0.0000 N   0  0
    4.6476  -22.6947    0.0000 C   0  0
    5.5124  -24.1123    0.0000 C   0  0
    6.7584  -23.4489    0.0000 C   0  0
    5.9438  -23.4222    0.0000 C   0  0
    7.1451  -24.1737    0.0000 C   0  0
    5.4626  -22.6943    0.0000 C   0  0
    5.8681  -21.9856    0.0000 C   0  0
    5.4564  -21.2787    0.0000 C   0  0
    4.6350  -21.2849    0.0000 C   0  0
    4.2332  -21.9940    0.0000 C   0  0
    6.7095  -24.8641    0.0000 C   0  0
    5.8944  -24.8332    0.0000 C   0  0
    5.4619  -25.5225    0.0000 C   0  0
    5.8433  -26.2432    0.0000 C   0  0
    6.6616  -26.2703    0.0000 C   0  0
    7.0904  -25.5803    0.0000 C   0  0
    0.6225  -26.1271    0.0000 F   0  0
  1  2  2  0
  2  3  1  0
  3  4  2  0
  4  5  1  0
  5  6  2  0
  6  1  1  0
  7  8  1  0
  8  9  1  0
  9 10  1  0
 10 11  1  0
 11  7  2  0
  5  7  1  0
 10 12  1  0
 13 23  2  0
 16 14  1  0
 14 15  2  0
 15 13  1  0
  9 13  1  0
 16 22  2  0
 12 17  2  0
 17 18  1  0
 18 19  2  0
 19 20  1  0
 20 21  2  0
 21 12  1  0
 22 23  1  0
 23 24  1  0
 24 25  2  0
 25 26  1  0
 26 27  2  0
 27 22  1  0
  2 28  1  0
M  END
> <chembl_id>
CHEMBL2325089

$$$$

  SciTegic01231713372D

 25 28  0  0  0  0            999 V2000
   -2.6111    0.7486    0.0000 C   0  0
   -2.6111   -0.7486    0.0000 C   0  0
   -1.2964   -1.4973    0.0000 C   0  0
   -1.2964    1.4973    0.0000 C   0  0
    0.0000    0.7486    0.0000 C   0  0
    0.0000   -0.7486    0.0000 C   0  0
    1.2964   -1.4973    0.0000 N   0  0
    2.5929   -0.7486    0.0000 C   0  0
    2.5929    0.7486    0.0000 N   0  0
    1.2964    1.4973    0.0000 C   0  0
   -3.9086    1.5029    0.0000 C   0  0
   -4.0476    2.9835    0.0000 C   0  0
   -5.5150    3.2942    0.0000 N   0  0
   -6.2640    1.9946    0.0000 N   0  0
   -5.2594    0.8807    0.0000 C   0  0
    1.2995    2.9981    0.0000 N   0  0
    2.6003    3.7467    0.0000 C   0  0
   -7.4573    1.8682    0.0000 C   0  0
    2.6056    5.2467    0.0000 C   0  0
    3.9072    5.9922    0.0000 C   0  0
    5.2037    5.2377    0.0000 C   0  0
    5.1985    3.7377    0.0000 C   0  0
    3.8969    2.9922    0.0000 C   0  0
    3.9114    7.1922    0.0000 Cl  0  0
    6.2450    5.8341    0.0000 F   0  0
  1  2  2  0
  2  3  1  0
  3  6  2  0
  5  4  2  0
  4  1  1  0
  5  6  1  0
  6  7  1  0
  7  8  2  0
  8  9  1  0
  9 10  2  0
 10  5  1  0
 11 12  1  0
 12 13  2  0
 13 14  1  0
 14 15  1  0
 15 11  2  0
  1 11  1  0
 10 16  1  0
 16 17  1  0
 14 18  1  0
 17 19  2  0
 19 20  1  0
 20 21  2  0
 21 22  1  0
 22 23  2  0
 23 17  1  0
 20 24  1  0
 21 25  1  0
M  END
> <chembl_id>
CHEMBL3828269

$$$$

  SciTegic12201615542D

 40 45  0  0  0  0            999 V2000
    3.5964   -6.9059    0.0000 C   0  0
    5.0652   -7.2141    0.0000 C   0  0
    5.4398   -8.3541    0.0000 C   0  0
    2.7961   -7.8001    0.0000 O   0  0
    3.1279   -5.4801    0.0000 N   0  0
    1.6591   -5.1719    0.0000 C   0  0
    1.1889   -3.7475    0.0000 C   0  0
   -0.2799   -3.4426    0.0000 C   0  0
   -1.2783   -4.5621    0.0000 C   0  0
   -0.8080   -5.9865    0.0000 C   0  0
    0.6607   -6.2914    0.0000 C   0  0
    2.1855   -2.6254    0.0000 C   0  0
    2.5889    0.0182    0.0000 C   0  0
    1.7138   -1.2033    0.0000 N   0  0
    0.2917   -0.7475    0.0000 C   0  0
    0.2917    0.7475    0.0000 C   0  0
    1.7138    1.2033    0.0000 N   0  0
   -1.0028    1.5132    0.0000 C   0  0
   -2.3155    0.7475    0.0000 C   0  0
   -2.3155   -0.7475    0.0000 C   0  0
   -1.0028   -1.5132    0.0000 C   0  0
    4.0896    0.0290    0.0000 C   0  0
    4.9412   -1.1997    0.0000 C   0  0
    4.7258    1.3894    0.0000 N   0  0
    6.4360   -1.0753    0.0000 N   0  0
    7.0757    0.2814    0.0000 C   0  0
    6.2206    1.5138    0.0000 C   0  0
    7.1535    5.2596    0.0000 N   0  0
    8.5113    4.6221    0.0000 N   0  0
    8.3245    3.1338    0.0000 C   0  0
    6.8606    2.8712    0.0000 C   0  0
    6.1276    4.1653    0.0000 C   0  0
    6.0835    9.6250    0.0000 N   0  0
    7.5335    9.2409    0.0000 C   0  0
    7.9258    7.7931    0.0000 C   0  0
    6.8711    6.7336    0.0000 C   0  0
    5.4182    7.1135    0.0000 C   0  0
    5.0259    8.5613    0.0000 C   0  0
    5.7696   10.7832    0.0000 C   0  0
    4.4291   -2.2850    0.0000 N   0  0
  1  2  1  0
  2  3  2  0
  1  4  2  0
  1  5  1  0
  6  7  1  0
  7  8  2  0
  8  9  1  0
  9 10  2  0
 10 11  1  0
  6 11  2  0
 13 14  1  0
 14 15  1  0
 15 16  1  0
 16 17  1  0
 13 17  2  0
 18 19  1  0
 19 20  2  0
 20 21  1  0
 15 21  2  0
 16 18  2  0
 22 23  1  0
 22 24  2  0
 23 25  2  0
 25 26  1  0
 26 27  2  0
 24 27  1  0
 28 29  1  0
 29 30  2  0
 30 31  1  0
 31 32  2  0
 28 32  1  0
 33 34  1  0
 34 35  1  0
 35 36  1  0
 36 37  1  0
 37 38  1  0
 33 38  1  0
 33 39  1  0
 28 36  1  0
 27 31  1  0
 23 40  1  0
 13 22  1  0
 12 14  1  0
  7 12  1  0
  5  6  1  0
M  END
> <chembl_id>
CHEMBL3814219

$$$$

  SciTegic04201609482D

 40 45  0  0  0  0            999 V2000
   -1.0028    1.5132    0.0000 C   0  0
   -2.3155    0.7475    0.0000 N   0  0
   -2.3155   -0.7475    0.0000 C   0  0
   -1.0028   -1.5132    0.0000 N   0  0
    0.2917    0.7475    0.0000 C   0  0
    0.2917   -0.7475    0.0000 C   0  0
    1.7138   -1.2033    0.0000 N   0  0
    2.5889    0.0182    0.0000 C   0  0
    1.7138    1.2033    0.0000 N   0  0
    2.1855   -2.6254    0.0000 C   0  0
    3.3606   -2.8684    0.0000 C   0  0
    1.3877   -3.5218    0.0000 C   0  0
   -0.9971    3.0138    0.0000 N   0  0
   -2.2935    3.7700    0.0000 C   0  0
   -3.6168   -1.4950    0.0000 N   0  0
   -3.7556   -2.9871    0.0000 C   0  0
   -4.9501   -0.8655    0.0000 C   0  0
   -2.2901    5.2700    0.0000 C   0  0
   -3.5873    6.0231    0.0000 C   0  0
   -4.8881    5.2761    0.0000 C   0  0
   -4.8917    3.7761    0.0000 C   0  0
   -3.5944    3.0231    0.0000 C   0  0
   -6.1860    6.0296    0.0000 N   0  0
   -6.1849    7.5297    0.0000 C   0  0
   -7.4834    8.2807    0.0000 C   0  0
   -8.7830    7.5317    0.0000 N   0  0
   -8.7842    6.0317    0.0000 C   0  0
   -7.4858    5.2807    0.0000 C   0  0
   -9.8218    8.1325    0.0000 C   0  0
   -5.9621   -1.9885    0.0000 C   0  0  1  0  0  0
   -5.2416   -3.2870    0.0000 C   0  0  2  0  0  0
   -6.2251   -4.4090    0.0000 C   0  0
   -7.6049   -3.7635    0.0000 N   0  0
   -7.4195   -2.2873    0.0000 C   0  0
   -8.9217   -4.4780    0.0000 C   0  0
  -10.2015   -3.6942    0.0000 C   0  0
   -8.9531   -5.6776    0.0000 O   0  0
  -11.2563   -4.2665    0.0000 C   0  0
   -6.4588   -1.1206    0.0000 H   0  0
   -4.7403   -4.1523    0.0000 H   0  0
  5  1  2  0
  1  2  1  0
  2  3  2  0
  3  4  1  0
  4  6  2  0
  5  6  1  0
  6  7  1  0
  7  8  1  0
  8  9  2  0
  9  5  1  0
  7 10  1  0
 10 11  1  0
 10 12  1  0
  1 13  1  0
 13 14  1  0
  3 15  1  0
 15 16  1  0
 16 31  1  0
 30 17  1  0
 17 15  1  0
 14 18  2  0
 18 19  1  0
 19 20  2  0
 20 21  1  0
 21 22  2  0
 22 14  1  0
 23 24  1  0
 23 28  1  0
 24 25  1  0
 25 26  1  0
 26 27  1  0
 27 28  1  0
 20 23  1  0
 26 29  1  0
 30 31  1  0
 31 32  1  0
 32 33  1  0
 33 34  1  0
 30 34  1  0
 33 35  1  0
 35 36  1  0
 35 37  2  0
 36 38  2  0
 30 39  1  6
 31 40  1  6
M  END
> <chembl_id>
CHEMBL3608430

$$$$

  SciTegic01161211252D

 43 49  0  0  0  0            999 V2000
    7.5281  -10.0658    0.0000 N   0  0
    8.2496   -9.6657    0.0000 C   0  0
    8.2638   -8.8408    0.0000 O   0  0
    8.9569  -10.0903    0.0000 N   0  0
    8.9427  -10.9153    0.0000 C   0  0
    8.2198  -11.3129    0.0000 C   0  0
    8.2037  -12.1341    0.0000 C   0  0
    8.9091  -12.5627    0.0000 C   0  0
    9.6324  -12.1639    0.0000 C   0  0
    9.6503  -11.3364    0.0000 C   0  0
    6.8121   -8.8280    0.0000 C   0  0
    6.0975   -8.4110    0.0000 C   0  0
    5.3812   -8.8214    0.0000 C   0  0
    5.3783   -9.6485    0.0000 C   0  0
    6.0977  -10.0636    0.0000 C   0  0
    6.8110   -9.6508    0.0000 C   0  0
    4.6651  -10.0616    0.0000 C   0  0
    3.9117   -9.7242    0.0000 C   0  0
    4.5775  -10.8819    0.0000 N   0  0
    3.7703  -11.0523    0.0000 C   0  0
    3.3585  -10.3394    0.0000 N   0  0
    2.5533  -10.5107    0.0000 C   0  0
    2.4674  -11.3295    0.0000 C   0  0
    3.2195  -11.6641    0.0000 S   0  0
    3.9032   -8.9005    0.0000 C   0  0
    4.6155   -8.4819    0.0000 C   0  0
    4.6081   -7.6577    0.0000 C   0  0
    3.1872   -8.4975    0.0000 N   0  0
    3.1764   -7.6747    0.0000 C   0  0
    3.8905   -7.2474    0.0000 N   0  0
    2.4560   -7.2725    0.0000 N   0  0
    2.4441   -6.4476    0.0000 C   0  0
    3.1524   -6.0303    0.0000 C   0  0
    3.1409   -5.2061    0.0000 C   0  0
    2.4200   -4.8031    0.0000 C   0  0
    1.7093   -5.2304    0.0000 C   0  0
    1.7243   -6.0531    0.0000 C   0  0
    2.4070   -3.9782    0.0000 N   0  0
    3.1189   -3.5597    0.0000 C   0  0
    3.1079   -2.7384    0.0000 C   0  0
    2.3888   -2.3333    0.0000 O   0  0
    1.6791   -2.7558    0.0000 C   0  0
    1.6885   -3.5834    0.0000 C   0  0
  1  2  1  0
  2  3  2  0
  2  4  1  0
  4  5  1  0
  5  6  1  0
  5 10  2  0
  6  7  2  0
  7  8  1  0
  8  9  2  0
  9 10  1  0
 19 17  1  0
 14 17  1  0
 20 21  1  0
 14 15  1  0
 12 13  1  0
 29 31  1  0
 15 16  2  0
 31 32  1  0
 16 11  1  0
 32 33  2  0
 17 18  2  0
 33 34  1  0
 21 22  1  0
 34 35  2  0
 22 23  2  0
 35 36  1  0
 23 24  1  0
 36 37  2  0
 37 32  1  0
 24 20  1  0
 35 38  1  0
 38 39  1  0
 11 12  2  0
 13 14  2  0
 25 26  2  0
 26 27  1  0
 38 43  1  0
 39 40  1  0
 40 41  1  0
 41 42  1  0
 42 43  1  0
 27 30  2  0
 18 21  1  0
 29 28  2  0
 28 25  1  0
 18 25  1  0
 29 30  1  0
 20 19  2  0
 16  1  1  0
M  END
> <chembl_id>
CHEMBL1090354

$$$$

  SciTegic09081514182D

 44 45  0  0  0  0            999 V2000
    1.2990   -0.7500    0.0000 C   0  0
    1.2990    0.7500    0.0000 C   0  0
    0.0000    1.5000    0.0000 C   0  0
   -1.2990    0.7500    0.0000 C   0  0
   -1.2990   -0.7500    0.0000 C   0  0
    0.0000   -1.5000    0.0000 C   0  0
   -2.5972   -1.5031    0.0000 C   0  0
   -2.5951   -3.0039    0.0000 C   0  0
   -3.8933   -3.7570    0.0000 C   0  0
   -3.8912   -5.2578    0.0000 C   0  0
   -4.9336   -3.1588    0.0000 O   0  0
   -5.1894   -6.0109    0.0000 C   0  0
   -5.1872   -7.5117    0.0000 C   0  0
   -6.2296   -5.4127    0.0000 O   0  0
   -6.4854   -8.2648    0.0000 C   0  0
   -6.4833   -9.7657    0.0000 C   0  0
   -7.7797  -10.5203    0.0000 C   0  0
   -7.7745  -12.0202    0.0000 C   0  0
   -6.4729  -12.7657    0.0000 C   0  0
   -5.1764  -12.0112    0.0000 C   0  0
   -5.1816  -10.5113    0.0000 C   0  0
    2.5973   -1.5031    0.0000 O   0  0
    2.5972    1.5031    0.0000 O   0  0
   -6.4708  -14.2666    0.0000 O   0  0
   -3.8726  -12.7545    0.0000 O   0  0
    2.5956   -2.7031    0.0000 C   0  0
    2.5951    3.0039    0.0000 C   0  0
   -2.8363  -12.1494    0.0000 C   0  0
   -7.7690  -15.0196    0.0000 C   0  0
    3.8933    3.7570    0.0000 C   0  0
    3.8912    5.2578    0.0000 C   0  0
    5.1894    6.0109    0.0000 C   0  0
    5.1876    7.2109    0.0000 O   0  0
    6.2296    5.4128    0.0000 O   0  0
   -7.7669  -16.5205    0.0000 C   0  0
   -9.0651  -17.2735    0.0000 C   0  0
   -9.0630  -18.7743    0.0000 C   0  0
   -8.0227  -19.3725    0.0000 O   0  0
  -10.1010  -19.3765    0.0000 O   0  0
   -2.5916   -6.0087    0.0000 C   0  0
   -2.5912   -7.5095    0.0000 C   0  0
   -1.2916   -8.2603    0.0000 C   0  0
   -1.2913   -9.4603    0.0000 O   0  0
   -0.2524   -7.6603    0.0000 O   0  0
  1  2  2  0
  2  3  1  0
  3  4  2  0
  4  5  1  0
  5  6  2  0
  6  1  1  0
  5  7  1  0
  7  8  2  0
  8  9  1  0
  9 10  2  0
  9 11  1  0
 10 12  1  0
 12 13  1  0
 12 14  2  0
 13 15  2  0
 15 16  1  0
 16 17  2  0
 17 18  1  0
 18 19  2  0
 19 20  1  0
 20 21  2  0
 21 16  1  0
  1 22  1  0
  2 23  1  0
 19 24  1  0
 20 25  1  0
 22 26  1  0
 23 27  1  0
 25 28  1  0
 24 29  1  0
 27 30  1  0
 30 31  1  0
 31 32  1  0
 32 33  2  0
 32 34  1  0
 29 35  1  0
 35 36  1  0
 36 37  1  0
 37 38  1  0
 37 39  2  0
 10 40  1  0
 40 41  1  0
 41 42  1  0
 42 43  2  0
 42 44  1  0
M  END
> <chembl_id>
CHEMBL3402863

$$$$

  SciTegic05221516342D

 41 45  0  0  0  0            999 V2000
   12.1285  -17.4292    0.0000 C   0  0
   12.1274  -18.2488    0.0000 C   0  0
   12.8354  -18.6577    0.0000 N   0  0
   13.5451  -18.2483    0.0000 C   0  0
   13.5422  -17.4256    0.0000 N   0  0
   12.8336  -17.0204    0.0000 C   0  0
   12.8317  -16.2033    0.0000 C   0  0
   13.4914  -15.7209    0.0000 C   0  0
   13.2365  -14.9445    0.0000 N   0  0
   12.1692  -15.7249    0.0000 C   0  0
   12.4160  -14.9438    0.0000 N   0  0
   11.8660  -14.3428    0.0000 C   0  0
   11.0662  -14.5172    0.0000 C   0  0
   10.8194  -15.2984    0.0000 C   0  0
   11.3723  -15.9051    0.0000 C   0  0
   11.4207  -17.0208    0.0000 Cl  0  0
   14.2534  -18.6558    0.0000 N   0  0
   14.9605  -18.2461    0.0000 C   0  0
   15.6655  -18.6540    0.0000 C   0  0
   16.3721  -18.2450    0.0000 C   0  0
   16.3712  -17.4269    0.0000 C   0  0
   15.6579  -17.0196    0.0000 C   0  0
   14.9543  -17.4310    0.0000 C   0  0
   15.6656  -19.4712    0.0000 O   0  0
   14.9579  -19.8799    0.0000 C   0  0
   15.6538  -16.2024    0.0000 N   0  0
   14.9440  -15.7974    0.0000 C   0  0
   14.9398  -14.9803    0.0000 C   0  0
   14.2384  -16.2096    0.0000 O   0  0
   15.6454  -14.5681    0.0000 C   0  0
   17.0778  -17.0163    0.0000 N   0  0
   17.7849  -17.4284    0.0000 C   0  0
   18.4893  -17.0212    0.0000 C   0  0
   18.4912  -16.2037    0.0000 N   0  0
   17.7824  -15.7950    0.0000 C   0  0
   17.0718  -16.2038    0.0000 C   0  0
   19.1992  -15.7957    0.0000 C   0  0
   19.2000  -14.9785    0.0000 O   0  0
   19.9066  -16.2049    0.0000 C   0  0  2  0  0  0
   19.9059  -17.0221    0.0000 C   0  0
   20.6147  -15.7970    0.0000 O   0  0
  1  2  2  0
  2  3  1  0
  3  4  2  0
  4  5  1  0
  5  6  2  0
  6  1  1  0
  7  8  1  0
  8  9  2  0
  9 11  1  0
 10  7  2  0
  6  7  1  0
 10 11  1  0
 10 15  1  0
 11 12  1  0
 12 13  2  0
 13 14  1  0
 14 15  2  0
  1 16  1  0
  4 17  1  0
 17 18  1  0
 18 19  2  0
 19 20  1  0
 20 21  2  0
 21 22  1  0
 22 23  2  0
 23 18  1  0
 19 24  1  0
 24 25  1  0
 22 26  1  0
 26 27  1  0
 27 28  1  0
 27 29  2  0
 28 30  2  0
 21 31  1  0
 31 32  1  0
 31 36  1  0
 32 33  1  0
 33 34  1  0
 34 35  1  0
 35 36  1  0
 34 37  1  0
 37 38  2  0
 37 39  1  0
 39 40  1  1
 39 41  1  0
M  END
> <chembl_id>
CHEMBL3353400

$$$$

  SciTegic09261414462D

 59 65  0  0  0  0            999 V2000
   19.1564  -27.1141    0.0000 S   0  0
   18.3566  -26.9460    0.0000 O   0  0
   18.6110  -27.7226    0.0000 O   0  0
    6.2555  -28.9195    0.0000 C   0  0
    6.2543  -29.7390    0.0000 C   0  0
    6.9624  -30.1480    0.0000 C   0  0
    7.6720  -29.7385    0.0000 C   0  0
    7.6692  -28.9159    0.0000 C   0  0
    6.9606  -28.5106    0.0000 C   0  0
    5.5497  -28.5112    0.0000 N   0  0
    5.5509  -27.6929    0.0000 C   0  0
    4.8439  -27.2846    0.0000 C   0  0
    4.1353  -27.6934    0.0000 N   0  0
    4.1381  -28.5148    0.0000 C   0  0
    4.8457  -28.9194    0.0000 C   0  0
    8.3804  -30.1460    0.0000 N   0  0
    9.0874  -29.7363    0.0000 C   0  0
    9.7925  -30.1442    0.0000 N   0  0
   10.4990  -29.7352    0.0000 C   0  0
   10.4982  -28.9171    0.0000 C   0  0
    9.7849  -28.5098    0.0000 C   0  0
    9.0812  -28.9212    0.0000 N   0  0
    9.7807  -27.6926    0.0000 O   0  0
   10.4863  -27.2804    0.0000 C   0  0
   11.1930  -27.6857    0.0000 C   0  0
   11.8982  -27.2742    0.0000 C   0  0
   11.8945  -26.4562    0.0000 C   0  0
   11.1797  -26.0514    0.0000 C   0  0
   10.4775  -26.4652    0.0000 C   0  0
   12.6078  -27.6795    0.0000 N   0  0
   13.3136  -27.2677    0.0000 C   0  0
   14.0232  -27.6730    0.0000 C   0  0
   13.3098  -26.4505    0.0000 O   0  0
   11.2047  -28.5065    0.0000 Cl  0  0
    6.9622  -30.9651    0.0000 O   0  0
    6.2544  -31.3736    0.0000 C   0  0
    3.4270  -27.2859    0.0000 C   0  0
   14.7290  -27.2612    0.0000 C   0  0
   15.4386  -27.6665    0.0000 N   0  0
   15.4374  -28.4828    0.0000 C   0  0
   16.1429  -28.8881    0.0000 C   0  0
   16.8511  -28.4797    0.0000 N   0  0
   16.8493  -27.6615    0.0000 C   0  0
   16.1393  -27.2518    0.0000 C   0  0
   17.5592  -28.8877    0.0000 C   0  0
   18.2666  -28.4785    0.0000 C   0  0
   18.9746  -28.8865    0.0000 O   0  0
   19.6820  -28.4773    0.0000 C   0  0
   20.4270  -28.8040    0.0000 N   0  0
   20.9733  -28.1962    0.0000 O   0  0
   20.5641  -27.4888    0.0000 N   0  3
   19.7649  -27.6595    0.0000 C   0  0
   19.3244  -26.3144    0.0000 C   0  0
   20.1000  -26.0641    0.0000 C   0  0
   20.2683  -25.2652    0.0000 C   0  0
   19.6594  -24.7188    0.0000 C   0  0
   18.8795  -24.9770    0.0000 C   0  0
   18.7150  -25.7753    0.0000 C   0  0
   20.8958  -26.7420    0.0000 O   0  5
  2  1  2  0
  1  3  2  0
  4  5  2  0
  5  6  1  0
  6  7  2  0
  7  8  1  0
  8  9  2  0
  9  4  1  0
 10 11  1  0
 11 12  1  0
 12 13  1  0
 13 14  1  0
 14 15  1  0
 15 10  1  0
  4 10  1  0
  7 16  1  0
 16 17  1  0
 17 18  2  0
 18 19  1  0
 19 20  2  0
 20 21  1  0
 21 22  2  0
 22 17  1  0
 21 23  1  0
 23 24  1  0
 24 25  2  0
 25 26  1  0
 26 27  2  0
 27 28  1  0
 28 29  2  0
 29 24  1  0
 26 30  1  0
 30 31  1  0
 31 32  1  0
 31 33  2  0
 20 34  1  0
  6 35  1  0
 35 36  1  0
 13 37  1  0
 32 38  1  0
 38 39  1  0
 39 40  1  0
 39 44  1  0
 40 41  1  0
 41 42  1  0
 42 43  1  0
 43 44  1  0
 42 45  1  0
 45 46  1  0
 46 47  1  0
 47 48  1  0
 48 49  2  0
 49 50  1  0
 50 51  1  0
 51 52  2  0
 52 48  1  0
 52  1  1  0
  1 53  1  0
 53 54  2  0
 54 55  1  0
 55 56  2  0
 56 57  1  0
 57 58  2  0
 58 53  1  0
 51 59  1  0
M  CHG  2  51   1  59  -1
M  END
> <chembl_id>
CHEMBL3237937

$$$$

  SciTegic06051313552D

 26 29  0  0  0  0            999 V2000
   10.7954  -19.3567    0.0000 C   0  0
   10.7943  -20.1762    0.0000 C   0  0
   11.5023  -20.5852    0.0000 C   0  0
   12.2120  -20.1757    0.0000 C   0  0
   12.2092  -19.3530    0.0000 C   0  0
   11.5005  -18.9478    0.0000 C   0  0
   12.8898  -18.9009    0.0000 C   0  0
   13.6571  -19.1821    0.0000 C   0  0
   14.1616  -18.5392    0.0000 C   0  0
   13.7057  -17.8613    0.0000 N   0  0
   12.9202  -18.0843    0.0000 N   0  0
   14.1113  -17.1518    0.0000 C   0  0
   14.9285  -17.1483    0.0000 N   0  0
   13.6997  -16.4459    0.0000 S   0  0
   14.9761  -18.5694    0.0000 C   0  0
   15.3578  -19.2932    0.0000 C   0  0
   16.2222  -17.9061    0.0000 C   0  0
   15.4075  -17.8793    0.0000 C   0  0
   16.6088  -18.6308    0.0000 C   0  0
   16.1732  -19.3213    0.0000 C   0  0
   16.5533  -20.0416    0.0000 C   0  0
   17.3689  -20.0728    0.0000 C   0  0
   17.8028  -19.3776    0.0000 C   0  0
   17.4202  -18.6600    0.0000 C   0  0
   10.0862  -20.5842    0.0000 Cl  0  0
   11.5021  -21.4024    0.0000 Cl  0  0
  1  2  2  0
  2  3  1  0
  3  4  2  0
  4  5  1  0
  5  6  2  0
  6  1  1  0
  7  8  1  0
  8  9  1  0
  9 10  1  0
 10 11  1  0
 11  7  2  0
  5  7  1  0
 10 12  1  0
 12 13  1  0
 12 14  2  0
 15 16  2  0
 16 20  1  0
 19 17  1  0
 17 18  2  0
 18 15  1  0
  9 15  1  0
 19 20  1  0
 20 21  2  0
 21 22  1  0
 22 23  2  0
 23 24  1  0
 24 19  2  0
  2 25  1  0
  3 26  1  0
M  END
> <chembl_id>
CHEMBL2325087

$$$$

  SciTegic05221516342D

 38 42  0  0  0  0            999 V2000
   17.1640  -15.5057    0.0000 C   0  0
   17.1640  -14.6885    0.0000 C   0  0
   16.4549  -14.2799    0.0000 C   0  0
   15.7499  -14.6885    0.0000 C   0  0
   17.8731  -15.9143    0.0000 O   0  0
   16.4549  -15.9143    0.0000 N   0  0
   13.6268  -13.4627    0.0000 O   0  0
   14.3317  -13.0541    0.0000 C   0  0
   15.0408  -13.4627    0.0000 C   0  0
   15.0408  -14.2799    0.0000 N   0  0
   14.3317  -14.6885    0.0000 C   0  0
   13.6268  -14.2799    0.0000 C   0  0
   17.8731  -14.2799    0.0000 F   0  0
   16.4549  -19.1831    0.0000 N   0  0
   15.7499  -19.5917    0.0000 C   0  0
   15.0408  -19.1831    0.0000 N   0  0
   15.0408  -18.3659    0.0000 C   0  0
   15.7499  -17.9573    0.0000 C   0  0
   15.7499  -17.1401    0.0000 C   0  0
   16.4549  -16.7315    0.0000 C   0  0
   17.1640  -17.1401    0.0000 C   0  0
   17.1640  -17.9573    0.0000 C   0  0
   16.4549  -18.3659    0.0000 C   0  0
   17.8731  -16.7315    0.0000 O   0  0
   19.4646  -18.1213    0.0000 O   0  0
   18.6662  -17.9505    0.0000 C   0  0
   18.5780  -17.1401    0.0000 C   0  0  2  0  0  0
   19.3253  -16.8057    0.0000 C   0  0
   19.8731  -17.4122    0.0000 C   0  0
   14.3317  -17.9573    0.0000 N   0  0
   13.6268  -18.3659    0.0000 C   0  0
   13.6268  -19.1831    0.0000 C   0  0
   12.9177  -19.5917    0.0000 C   0  0
   12.2086  -19.1831    0.0000 C   0  0
   12.2086  -18.3659    0.0000 C   0  0
   12.9177  -17.9573    0.0000 C   0  0
   11.5036  -19.5917    0.0000 F   0  0
   12.9177  -20.4088    0.0000 Cl  0  0
  1  2  1  0
  2  3  2  0
  3  4  1  0
  1  5  2  0
  1  6  1  0
  7  8  1  0
  8  9  1  0
  9 10  1  0
 10 11  1  0
 11 12  1  0
  7 12  1  0
  4 10  1  0
  2 13  1  0
 14 15  1  0
 15 16  2  0
 16 17  1  0
 17 18  2  0
 18 19  1  0
 19 20  2  0
 20 21  1  0
 21 22  2  0
 22 23  1  0
 14 23  2  0
 18 23  1  0
 25 26  1  0
 26 27  1  0
 27 28  1  0
 28 29  1  0
 25 29  1  0
 27 24  1  1
 21 24  1  0
 31 32  1  0
 32 33  2  0
 33 34  1  0
 34 35  2  0
 35 36  1  0
 31 36  2  0
 34 37  1  0
 33 38  1  0
 30 31  1  0
 17 30  1  0
  6 20  1  0
M  END
> <chembl_id>
CHEMBL3357640

$$$$

  SciTegic12191612012D

 35 38  0  0  0  0            999 V2000
    2.1749    2.6315    0.0000 C   0  0  2  0  0  0
    3.6428    2.9513    0.0000 C   0  0
    4.3193    4.2901    0.0000 C   0  0
    3.6944    5.6537    0.0000 C   0  0
    1.0196    3.6029    0.0000 C   0  0
    2.2387    6.0153    0.0000 C   0  0
    1.0483    5.1026    0.0000 N   0  0
    1.7138    1.2033    0.0000 N   0  0
    1.7138   -1.2033    0.0000 N   0  0
    2.5889    0.0182    0.0000 C   0  0
    0.2917   -0.7475    0.0000 C   0  0
    0.2917    0.7475    0.0000 C   0  0
   -1.0028    1.5132    0.0000 C   0  0
   -2.3155    0.7475    0.0000 C   0  0
   -2.3155   -0.7475    0.0000 C   0  0
   -1.0028   -1.5132    0.0000 C   0  0
    4.0872    0.0320    0.0000 N   0  0
    4.8506   -1.2602    0.0000 C   0  0
    6.3513   -1.2462    0.0000 C   0  0
    4.2606   -2.3052    0.0000 O   0  0
    7.1161   -2.5367    0.0000 C   0  0
    8.6160   -2.5196    0.0000 C   0  0
    9.3512   -1.2122    0.0000 N   0  0
    8.5865    0.0783    0.0000 C   0  0
    7.0866    0.0613    0.0000 C   0  0
    9.2278   -3.5520    0.0000 C   0  0
   -0.9991    2.7132    0.0000 Cl  0  0
   -0.2916    5.7831    0.0000 C   0  0
   -1.2969    5.1279    0.0000 O   0  0
   -0.3731    7.2817    0.0000 C   0  0
   -1.7112    7.9613    0.0000 C   0  0
   -1.7927    9.4599    0.0000 C   0  0
   -3.1308   10.1395    0.0000 N   0  0
   -3.1959   11.3378    0.0000 C   0  0
   -4.1361    9.4843    0.0000 C   0  0
  1  2  1  0
  2  3  1  0
  3  4  1  0
  1  5  1  0
  4  6  1  0
  5  7  1  0
  6  7  1  0
  1  8  1  1
  8 12  1  0
 11  9  1  0
  9 10  2  0
 10  8  1  0
 11 12  2  0
 12 13  1  0
 13 14  2  0
 14 15  1  0
 15 16  2  0
 16 11  1  0
 10 17  1  0
 17 18  1  0
 18 19  1  0
 18 20  2  0
 19 21  2  0
 21 22  1  0
 22 23  2  0
 23 24  1  0
 24 25  2  0
 25 19  1  0
 22 26  1  0
 13 27  1  0
  7 28  1  0
 28 29  2  0
 28 30  1  0
 30 31  2  0
 31 32  1  0
 32 33  1  0
 33 34  1  0
 33 35  1  0
M  END
> <chembl_id>
CHEMBL3787344

$$$$

  SciTegic04191617032D

 30 33  0  0  0  0            999 V2000
    1.2990   -0.7500    0.0000 C   0  0
    1.2990    0.7500    0.0000 C   0  0
    0.0000    1.5000    0.0000 N   0  0
   -1.2990    0.7500    0.0000 C   0  0
   -1.2990   -0.7500    0.0000 N   0  0
    0.0000   -1.5000    0.0000 C   0  0
    0.0031   -3.0008    0.0000 N   0  0
    1.3039   -3.7494    0.0000 C   0  0
    1.4469   -5.2297    0.0000 C   0  0
    2.9152   -5.5365    0.0000 C   0  0
    3.6607   -4.2349    0.0000 N   0  0
    2.6532   -3.1236    0.0000 N   0  0
    3.4071   -6.6311    0.0000 C   0  0
   -2.6003    1.4977    0.0000 O   0  0
   -3.8990    0.7455    0.0000 C   0  0
   -3.8939   -0.7546    0.0000 C   0  0
   -5.1903   -1.5091    0.0000 C   0  0
   -6.4920   -0.7636    0.0000 C   0  0
   -6.4972    0.7364    0.0000 C   0  0
   -5.2007    1.4909    0.0000 C   0  0
    2.5987    1.5004    0.0000 N   0  0
    3.8991    0.7525    0.0000 C   0  0
    5.1969    1.5046    0.0000 C   0  0
    5.1945    3.0046    0.0000 N   0  0
    3.8943    3.7525    0.0000 C   0  0
    2.5964    3.0004    0.0000 C   0  0
    6.2328    3.6062    0.0000 C   0  0
   -5.2091    2.9917    0.0000 N   0  3
   -6.2512    3.5866    0.0000 O   0  0
   -4.1730    3.5971    0.0000 O   0  5
  1  2  2  0
  2  3  1  0
  3  4  2  0
  4  5  1  0
  5  6  2  0
  6  1  1  0
  6  7  1  0
  7  8  1  0
  8  9  1  0
  9 10  2  0
 10 11  1  0
 11 12  1  0
 12  8  2  0
 10 13  1  0
  4 14  1  0
 14 15  1  0
 15 16  2  0
 16 17  1  0
 17 18  2  0
 18 19  1  0
 19 20  2  0
 20 15  1  0
  2 21  1  0
 21 22  1  0
 21 26  1  0
 22 23  1  0
 23 24  1  0
 24 25  1  0
 25 26  1  0
 24 27  1  0
 28 29  2  0
 28 30  1  0
 20 28  1  0
M  CHG  2  28   1  30  -1
M  END
> <chembl_id>
CHEMBL3604926

$$$$

  Mrv0541 07041614352D          

 35 39  0  0  0  0            999 V2000
    0.3482   -5.3625    0.0000 C   0  0  0  0  0  0  0  0  0  0  0  0
   -0.3663   -5.7750    0.0000 C   0  0  0  0  0  0  0  0  0  0  0  0
   -0.3663   -6.6000    0.0000 C   0  0  0  0  0  0  0  0  0  0  0  0
    0.3482   -7.0125    0.0000 C   0  0  0  0  0  0  0  0  0  0  0  0
    1.0627   -6.6000    0.0000 C   0  0  0  0  0  0  0  0  0  0  0  0
    1.0627   -5.7750    0.0000 C   0  0  0  0  0  0  0  0  0  0  0  0
    1.7772   -7.0125    0.0000 O   0  0  0  0  0  0  0  0  0  0  0  0
    2.4917   -6.6000    0.0000 C   0  0  0  0  0  0  0  0  0  0  0  0
    3.2061   -7.0125    0.0000 N   0  0  0  0  0  0  0  0  0  0  0  0
    3.9206   -6.6000    0.0000 C   0  0  0  0  0  0  0  0  0  0  0  0
    3.9206   -5.7750    0.0000 N   0  0  0  0  0  0  0  0  0  0  0  0
    3.2061   -5.3625    0.0000 C   0  0  0  0  0  0  0  0  0  0  0  0
    2.4916   -5.7750    0.0000 C   0  0  0  0  0  0  0  0  0  0  0  0
    4.6351   -7.0125    0.0000 N   0  0  0  0  0  0  0  0  0  0  0  0
    5.3496   -6.6000    0.0000 C   0  0  0  0  0  0  0  0  0  0  0  0
    6.0640   -7.0125    0.0000 C   0  0  0  0  0  0  0  0  0  0  0  0
    6.7785   -6.6000    0.0000 C   0  0  0  0  0  0  0  0  0  0  0  0
    6.7785   -5.7750    0.0000 C   0  0  0  0  0  0  0  0  0  0  0  0
    6.0640   -5.3625    0.0000 C   0  0  0  0  0  0  0  0  0  0  0  0
    5.3495   -5.7750    0.0000 C   0  0  0  0  0  0  0  0  0  0  0  0
    7.4930   -5.3625    0.0000 N   0  0  0  0  0  0  0  0  0  0  0  0
    8.2074   -5.7750    0.0000 C   0  0  0  0  0  0  0  0  0  0  0  0
    8.9219   -5.3625    0.0000 C   0  0  0  0  0  0  0  0  0  0  0  0
    8.9219   -4.5375    0.0000 N   0  0  0  0  0  0  0  0  0  0  0  0
    8.2074   -4.1250    0.0000 C   0  0  0  0  0  0  0  0  0  0  0  0
    7.4930   -4.5375    0.0000 C   0  0  0  0  0  0  0  0  0  0  0  0
    9.6364   -4.1250    0.0000 C   0  0  0  0  0  0  0  0  0  0  0  0
    1.8786   -5.2230    0.0000 S   0  0  0  0  0  0  0  0  0  0  0  0
    2.2141   -4.4693    0.0000 C   0  0  0  0  0  0  0  0  0  0  0  0
    3.0345   -4.5555    0.0000 C   0  0  0  0  0  0  0  0  0  0  0  0
    0.3482   -4.5375    0.0000 N   0  0  0  0  0  0  0  0  0  0  0  0
   -0.3663   -4.1250    0.0000 C   0  0  0  0  0  0  0  0  0  0  0  0
   -0.3663   -3.3000    0.0000 O   0  0  0  0  0  0  0  0  0  0  0  0
   -1.0807   -4.5375    0.0000 C   0  0  0  0  0  0  0  0  0  0  0  0
   -1.7952   -4.1250    0.0000 C   0  0  0  0  0  0  0  0  0  0  0  0
  1  2  2  0  0  0  0
  1  6  1  0  0  0  0
  2  3  1  0  0  0  0
  3  4  2  0  0  0  0
  4  5  1  0  0  0  0
  5  6  2  0  0  0  0
  5  7  1  0  0  0  0
  7  8  1  0  0  0  0
  8  9  2  0  0  0  0
  8 13  1  0  0  0  0
  9 10  1  0  0  0  0
 10 11  2  0  0  0  0
 11 12  1  0  0  0  0
 10 14  1  0  0  0  0
 14 15  1  0  0  0  0
 15 16  2  0  0  0  0
 15 20  1  0  0  0  0
 16 17  1  0  0  0  0
 17 18  2  0  0  0  0
 18 19  1  0  0  0  0
 19 20  2  0  0  0  0
 18 21  1  0  0  0  0
 21 22  1  0  0  0  0
 26 21  1  0  0  0  0
 22 23  1  0  0  0  0
 23 24  1  0  0  0  0
 24 25  1  0  0  0  0
 25 26  1  0  0  0  0
 24 27  1  0  0  0  0
 12 30  1  0  0  0  0
 12 13  2  0  0  0  0
 13 28  1  0  0  0  0
 28 29  1  0  0  0  0
 29 30  2  0  0  0  0
  1 31  1  0  0  0  0
 31 32  1  0  0  0  0
 32 33  2  0  0  0  0
 32 34  1  0  0  0  0
 34 35  2  0  0  0  0
M  END
> <chembl_id>
CHEMBL3786343

$$$$

  SciTegic01181116592D

 31 34  0  0  0  0            999 V2000
    8.3938  -16.1487    0.0000 N   0  0
    9.1109  -15.7351    0.0000 C   0  0
    9.1080  -14.9040    0.0000 N   0  0
    8.3920  -14.4944    0.0000 C   0  0
    8.3896  -13.6688    0.0000 N   0  0
    7.6785  -15.7356    0.0000 C   0  0
    7.6752  -14.9107    0.0000 C   0  0
    6.8949  -15.9936    0.0000 S   0  0
    6.4073  -15.3282    0.0000 C   0  0
    6.8892  -14.6606    0.0000 C   0  0
    6.5539  -13.9135    0.0000 C   0  0
    5.7355  -13.8276    0.0000 C   0  0
    5.2535  -14.4948    0.0000 N   0  0
    5.5899  -15.2487    0.0000 C   0  0
    9.1034  -13.2539    0.0000 C   0  0  2  0  0  0
    9.1009  -12.4282    0.0000 C   0  0
    4.4243  -14.4947    0.0000 C   0  0
    4.0115  -15.2098    0.0000 O   0  0
    4.0116  -13.7797    0.0000 C   0  0
    4.4245  -13.0647    0.0000 C   0  0
    4.0118  -12.3496    0.0000 C   0  0
    4.4247  -11.6346    0.0000 N   0  0
    5.2507  -11.6371    0.0000 C   0  0
    4.0104  -10.9220    0.0000 C   0  0
    9.8196  -13.6646    0.0000 C   0  0
    9.8165  -12.0178    0.0000 C   0  0
    9.8144  -11.1929    0.0000 C   0  0
    9.0977  -10.7814    0.0000 C   0  0
    8.3815  -11.2007    0.0000 C   0  0
    8.3871  -12.0243    0.0000 C   0  0
    9.8221  -14.4902    0.0000 O   0  0
  2  3  1  0
  5 15  1  0
 15 16  1  6
  7 10  1  0
 13 17  1  0
  9  8  1  0
 17 18  2  0
  8  6  1  0
 17 19  1  0
  9 10  2  0
 19 20  2  0
  3  4  2  0
 20 21  1  0
  4  7  1  0
 21 22  1  0
 22 23  1  0
  1  2  2  0
  4  5  1  0
 22 24  1  0
  6  7  2  0
 15 25  1  0
  6  1  1  0
 16 26  2  0
  9 14  1  0
 26 27  1  0
 10 11  1  0
 27 28  2  0
 11 12  1  0
 28 29  1  0
 12 13  1  0
 29 30  2  0
 30 16  1  0
 13 14  1  0
 25 31  1  0
M  END
> <chembl_id>
CHEMBL1271508

$$$$

  SciTegic12171313052D

 31 34  0  0  0  0            999 V2000
    0.6218  -17.2848    0.0000 C   0  0
    0.6206  -18.1043    0.0000 C   0  0
    1.3287  -18.5133    0.0000 C   0  0
    2.0384  -18.1039    0.0000 C   0  0
    2.0355  -17.2812    0.0000 C   0  0
    1.3269  -16.8759    0.0000 C   0  0
    1.3245  -16.0587    0.0000 N   0  0
    2.0310  -15.6480    0.0000 C   0  0
    2.7413  -16.0589    0.0000 N   0  0
    2.7314  -14.4246    0.0000 C   0  0
    2.0284  -14.8369    0.0000 N   0  0
    3.4453  -14.8309    0.0000 C   0  0
    3.4461  -15.6506    0.0000 C   0  0
    4.1525  -16.0575    0.0000 N   0  0
    4.8626  -15.6492    0.0000 C   0  0
    4.8619  -14.8295    0.0000 C   0  0
    4.1509  -14.4180    0.0000 N   0  0
    4.1537  -16.8720    0.0000 C   0  0
    3.4442  -17.2797    0.0000 C   0  0
    3.4435  -18.0961    0.0000 C   0  0
    4.1515  -18.5059    0.0000 C   0  0
    4.8618  -18.0932    0.0000 C   0  0
    4.8590  -17.2781    0.0000 C   0  0
    5.5702  -16.0581    0.0000 O   0  0
    1.3285  -19.3305    0.0000 O   0  0
    0.6207  -19.7389    0.0000 C   0  0
    4.1523  -19.3231    0.0000 O   0  0
    4.8603  -19.7310    0.0000 C   0  0
    4.8611  -20.5482    0.0000 O   0  0
    5.5677  -19.3218    0.0000 C   0  0
    6.2758  -19.7297    0.0000 C   0  0
  1  2  2  0
  2  3  1  0
  3  4  2  0
  4  5  1  0
  5  6  2  0
  6  1  1  0
  6  7  1  0
  7  8  1  0
  8  9  2  0
  9 13  1  0
 12 10  1  0
 10 11  2  0
 11  8  1  0
 12 13  2  0
 12 17  1  0
 13 14  1  0
 14 15  1  0
 15 16  1  0
 16 17  2  0
 18 19  2  0
 19 20  1  0
 20 21  2  0
 21 22  1  0
 22 23  2  0
 23 18  1  0
 14 18  1  0
 15 24  2  0
  3 25  1  0
 25 26  1  0
 21 27  1  0
 27 28  1  0
 28 29  2  0
 28 30  1  0
 30 31  2  0
M  END
> <chembl_id>
CHEMBL2437482

$$$$

  SciTegic09261414462D

 27 29  0  0  0  0            999 V2000
   30.8054  -10.8367    0.0000 N   0  0
   31.5150  -10.4272    0.0000 C   0  0
   31.5122   -9.6046    0.0000 N   0  0
   30.8036   -9.1993    0.0000 C   0  0
   30.0973  -10.4277    0.0000 C   0  0
   30.0985   -9.6112    0.0000 C   0  0
   29.3223   -9.3576    0.0000 C   0  0
   28.8414  -10.0176    0.0000 C   0  0
   29.3204  -10.6788    0.0000 S   0  0
   30.7998   -8.3821    0.0000 N   0  0
   31.5056   -7.9703    0.0000 C   0  0
   32.2130   -8.3804    0.0000 C   0  0
   32.9184   -7.9692    0.0000 C   0  0
   32.9150   -7.1512    0.0000 C   0  0
   32.2005   -6.7460    0.0000 C   0  0
   31.4981   -7.1595    0.0000 C   0  0
   28.0242  -10.0164    0.0000 N   0  0
   27.6166   -9.3081    0.0000 C   0  0
   26.7994   -9.3069    0.0000 C   0  0
   28.0262   -8.6009    0.0000 O   0  0
   33.6203   -6.7384    0.0000 F   0  0
   33.6278   -8.3749    0.0000 Cl  0  0
   26.3898  -10.0140    0.0000 C   0  0
   25.5726  -10.0128    0.0000 C   0  0
   25.1630  -10.7199    0.0000 N   0  0
   24.3458  -10.7187    0.0000 C   0  0
   25.5705  -11.4282    0.0000 C   0  0
  5  1  1  0
  1  2  2  0
  2  3  1  0
  3  4  2  0
  4  6  1  0
  5  6  2  0
  6  7  1  0
  7  8  2  0
  8  9  1  0
  9  5  1  0
  4 10  1  0
 10 11  1  0
 11 12  2  0
 12 13  1  0
 13 14  2  0
 14 15  1  0
 15 16  2  0
 16 11  1  0
  8 17  1  0
 17 18  1  0
 18 19  1  0
 18 20  2  0
 14 21  1  0
 13 22  1  0
 19 23  1  0
 23 24  1  0
 24 25  1  0
 25 26  1  0
 25 27  1  0
M  END
> <chembl_id>
CHEMBL3233761

$$$$

  SciTegic12161615052D

 24 26  0  0  0  0            999 V2000
    1.2990   -0.7500    0.0000 C   0  0
    1.2990    0.7500    0.0000 C   0  0
    0.0000    1.5000    0.0000 C   0  0
   -1.2990    0.7500    0.0000 C   0  0
   -1.2990   -0.7500    0.0000 C   0  0
    0.0000   -1.5000    0.0000 N   0  0
    2.5972    1.5031    0.0000 C   0  0
    3.6375    0.9049    0.0000 O   0  0
    2.5951    3.0039    0.0000 N   0  0
    2.3383   -1.3500    0.0000 O   0  0
    3.8933    3.7570    0.0000 C   0  0
    3.8933    5.2571    0.0000 C   0  0
    5.1924    6.0071    0.0000 C   0  0
    6.4914    5.2571    0.0000 C   0  0
    6.4915    3.7571    0.0000 C   0  0
    5.1925    3.0071    0.0000 C   0  0
    7.7911    6.0075    0.0000 N   0  0
    7.7935    7.5076    0.0000 C   0  0
    9.0937    8.2556    0.0000 C   0  0
   10.3916    7.5036    0.0000 N   0  0
   10.3893    6.0036    0.0000 C   0  0
    9.0891    5.2556    0.0000 C   0  0
   11.4318    8.1019    0.0000 C   0  0
    0.0000    2.7000    0.0000 N   0  0
  1  2  1  0
  2  3  2  0
  3  4  1  0
  4  5  2  0
  5  6  1  0
  1  6  1  0
  7  8  2  0
  7  9  1  0
  2  7  1  0
  1 10  2  0
 11 12  1  0
 12 13  2  0
 13 14  1  0
 14 15  2  0
 15 16  1  0
 11 16  2  0
 17 18  1  0
 18 19  1  0
 19 20  1  0
 20 21  1  0
 21 22  1  0
 17 22  1  0
 20 23  1  0
 14 17  1  0
  9 11  1  0
  3 24  1  0
M  END
> <chembl_id>
CHEMBL3780635

$$$$

  SciTegic09291413392D

 46 51  0  0  0  0            999 V2000
   12.7557   -7.6922    0.0000 C   0  0
   13.1682   -6.9778    0.0000 C   0  0
   13.9932   -6.9777    0.0000 C   0  0
   14.4057   -7.6922    0.0000 C   0  0
   13.9932   -8.4067    0.0000 C   0  0
   13.1682   -8.4067    0.0000 C   0  0
   11.9307   -7.6922    0.0000 S   0  0
   11.1057   -7.6922    0.0000 O   0  0
   11.9307   -8.5172    0.0000 O   0  0
   11.9307   -6.8672    0.0000 N   0  0
   15.2262   -6.1770    0.0000 O   0  0
   14.4057   -6.2633    0.0000 C   0  0
   14.0701   -5.5096    0.0000 C   0  0
   14.6832   -4.9576    0.0000 C   0  0
   15.3977   -5.3701    0.0000 C   0  0
   11.2162   -6.4547    0.0000 C   0  0
   11.2162   -5.6297    0.0000 C   0  0
   10.5018   -5.2172    0.0000 C   0  0
    9.7873   -5.6297    0.0000 C   0  0
    9.7873   -6.4547    0.0000 C   0  0
   10.5018   -6.8672    0.0000 C   0  0
    9.0728   -5.2172    0.0000 O   0  0
    6.9294   -6.4547    0.0000 N   0  0
    7.6439   -6.8672    0.0000 C   0  0
    8.3583   -6.4547    0.0000 C   0  0
    8.3583   -5.6297    0.0000 C   0  0
    7.6439   -5.2172    0.0000 C   0  0
    7.6439   -4.3922    0.0000 C   0  0
    6.9294   -3.9797    0.0000 C   0  0
    6.2149   -4.3922    0.0000 C   0  0
    6.2149   -5.2172    0.0000 C   0  0
    6.9294   -5.6297    0.0000 C   0  0
    5.5005   -3.9797    0.0000 O   0  0
    4.7860   -4.3922    0.0000 C   0  0
    4.0715   -3.9797    0.0000 C   0  0
    3.3570   -4.3922    0.0000 C   0  0
    2.6426   -3.9797    0.0000 N   0  0
    2.6426   -3.1547    0.0000 C   0  0
    1.9281   -2.7422    0.0000 C   0  0
    1.2136   -3.1547    0.0000 N   0  0
    1.2136   -3.9797    0.0000 C   0  0
    1.9281   -4.3922    0.0000 C   0  0
    0.4992   -2.7422    0.0000 C   0  0
    6.9294   -3.1547    0.0000 O   0  0
    6.2149   -2.7422    0.0000 C   0  0
   10.5018   -4.3922    0.0000 F   0  0
  1  2  1  0
  2  3  2  0
  3  4  1  0
  4  5  2  0
  5  6  1  0
  1  6  2  0
  7  8  2  0
  7  9  2  0
  7 10  1  0
  1  7  1  0
 11 12  1  0
 12 13  2  0
 13 14  1  0
 14 15  2  0
 11 15  1  0
  3 12  1  0
 16 17  1  0
 17 18  2  0
 18 19  1  0
 19 20  2  0
 20 21  1  0
 16 21  2  0
 23 24  2  0
 24 25  1  0
 25 26  2  0
 26 27  1  0
 27 28  2  0
 28 29  1  0
 29 30  2  0
 30 31  1  0
 31 32  2  0
 23 32  1  0
 27 32  1  0
 34 35  1  0
 35 36  1  0
 33 34  1  0
 37 38  1  0
 38 39  1  0
 39 40  1  0
 40 41  1  0
 41 42  1  0
 37 42  1  0
 40 43  1  0
 36 37  1  0
 30 33  1  0
 44 45  1  0
 29 44  1  0
 22 26  1  0
 19 22  1  0
 18 46  1  0
 10 16  1  0
M  END
> <chembl_id>
CHEMBL3263969

$$$$

  SciTegic09261414462D

 26 28  0  0  0  0            999 V2000
   20.4501   -5.0173    0.0000 N   0  0
   21.1598   -4.6078    0.0000 C   0  0
   21.1570   -3.7852    0.0000 N   0  0
   20.4484   -3.3799    0.0000 C   0  0
   19.7421   -4.6083    0.0000 C   0  0
   19.7433   -3.7918    0.0000 C   0  0
   18.9671   -3.5383    0.0000 C   0  0
   18.4861   -4.1982    0.0000 C   0  0
   18.9652   -4.8594    0.0000 S   0  0
   20.4446   -2.5627    0.0000 N   0  0
   21.1504   -2.1509    0.0000 C   0  0
   21.8578   -2.5610    0.0000 C   0  0
   22.5632   -2.1498    0.0000 C   0  0
   22.5598   -1.3318    0.0000 C   0  0
   21.8453   -0.9266    0.0000 C   0  0
   21.1429   -1.3401    0.0000 C   0  0
   17.6689   -4.1970    0.0000 N   0  0
   17.2614   -3.4887    0.0000 C   0  0
   16.4442   -3.4875    0.0000 C   0  0
   17.6710   -2.7816    0.0000 O   0  0
   23.2651   -0.9190    0.0000 F   0  0
   23.2725   -2.5555    0.0000 Cl  0  0
   16.0346   -4.1946    0.0000 C   0  0
   16.0366   -2.7792    0.0000 C   0  0
   16.4462   -2.0721    0.0000 C   0  0
   16.4421   -4.9029    0.0000 C   0  0
  5  1  1  0
  1  2  2  0
  2  3  1  0
  3  4  2  0
  4  6  1  0
  5  6  2  0
  6  7  1  0
  7  8  2  0
  8  9  1  0
  9  5  1  0
  4 10  1  0
 10 11  1  0
 11 12  2  0
 12 13  1  0
 13 14  2  0
 14 15  1  0
 15 16  2  0
 16 11  1  0
  8 17  1  0
 17 18  1  0
 18 19  1  0
 18 20  2  0
 14 21  1  0
 13 22  1  0
 19 23  1  0
 19 24  1  0
 24 25  1  0
 23 26  1  0
M  END
> <chembl_id>
CHEMBL3233757

$$$$

  SciTegic05221516342D

 31 33  0  0  0  0            999 V2000
    7.7470   -4.4995    0.0000 C   0  0
    8.4520   -4.0909    0.0000 C   0  0
    8.4520   -3.2738    0.0000 C   0  0
    9.1611   -2.8652    0.0000 C   0  0
    7.7470   -5.3167    0.0000 O   0  0
    7.0379   -4.0909    0.0000 N   0  0
    9.1611   -4.4995    0.0000 F   0  0
    9.8702   -3.2738    0.0000 N   0  0
   10.5751   -2.8652    0.0000 C   0  0
    9.8702   -4.0909    0.0000 C   0  0
    4.2057   -5.7253    0.0000 N   0  0
    3.5007   -5.3167    0.0000 C   0  0
    3.5007   -4.4995    0.0000 N   0  0
    4.2057   -4.0909    0.0000 C   0  0
    4.9148   -4.4995    0.0000 C   0  0
    5.6239   -4.0909    0.0000 C   0  0
    6.3288   -4.4995    0.0000 C   0  0
    6.3288   -5.3167    0.0000 C   0  0
    5.6239   -5.7253    0.0000 C   0  0
    4.9148   -5.3167    0.0000 C   0  0
    7.0379   -5.7253    0.0000 O   0  0
    7.0379   -6.5425    0.0000 C   0  0
    4.2057   -3.2738    0.0000 N   0  0
    3.5007   -2.8652    0.0000 C   0  0
    2.7916   -3.2738    0.0000 C   0  0
    2.0826   -2.8652    0.0000 C   0  0
    2.0826   -2.0480    0.0000 C   0  0
    2.7916   -1.6394    0.0000 C   0  0
    3.5007   -2.0480    0.0000 C   0  0
    1.3776   -1.6394    0.0000 F   0  0
    1.3776   -3.2738    0.0000 Cl  0  0
  1  2  1  0
  2  3  2  0
  3  4  1  0
  1  5  2  0
  1  6  1  0
  2  7  1  0
  8  9  1  0
  8 10  1  0
  4  8  1  0
 11 12  1  0
 12 13  2  0
 13 14  1  0
 14 15  2  0
 15 16  1  0
 16 17  2  0
 17 18  1  0
 18 19  2  0
 19 20  1  0
 11 20  2  0
 15 20  1  0
 21 22  1  0
 18 21  1  0
 24 25  1  0
 25 26  2  0
 26 27  1  0
 27 28  2  0
 28 29  1  0
 24 29  2  0
 27 30  1  0
 26 31  1  0
 23 24  1  0
 14 23  1  0
  6 17  1  0
M  END
> <chembl_id>
CHEMBL3357634

$$$$

  SciTegic12161615052D

 33 36  0  0  0  0            999 V2000
    1.2990   -0.7500    0.0000 C   0  0
    1.2990    0.7500    0.0000 C   0  0
    0.0000    1.5000    0.0000 C   0  0
   -1.2990    0.7500    0.0000 C   0  0
   -1.2990   -0.7500    0.0000 C   0  0
    0.0000   -1.5000    0.0000 N   0  0
    2.5972    1.5031    0.0000 C   0  0
    3.6375    0.9049    0.0000 O   0  0
    2.5951    3.0039    0.0000 N   0  0
    2.3383   -1.3500    0.0000 O   0  0
    3.8933    3.7570    0.0000 C   0  0
    3.8933    5.2571    0.0000 C   0  0
    5.1924    6.0071    0.0000 C   0  0
    6.4914    5.2571    0.0000 C   0  0
    6.4915    3.7571    0.0000 C   0  0
    5.1925    3.0071    0.0000 C   0  0
    7.7911    6.0075    0.0000 N   0  0
    7.7935    7.5076    0.0000 C   0  0
    9.0937    8.2556    0.0000 C   0  0
   10.3916    7.5036    0.0000 N   0  0
   10.3893    6.0036    0.0000 C   0  0
    9.0891    5.2556    0.0000 C   0  0
   11.4318    8.1019    0.0000 C   0  0
   -0.0031    3.0008    0.0000 N   0  0
   -1.3039    3.7494    0.0000 C   0  0
   -1.3070    5.2502    0.0000 C   0  0
   -2.6078    5.9988    0.0000 C   0  0
   -2.6131    7.4988    0.0000 C   0  0
   -3.9148    8.2443    0.0000 C   0  0
   -5.2112    7.4898    0.0000 C   0  0
   -5.2060    5.9898    0.0000 C   0  0
   -3.9044    5.2443    0.0000 C   0  0
   -6.2525    8.0862    0.0000 Cl  0  0
  1  2  1  0
  2  3  2  0
  3  4  1  0
  4  5  2  0
  5  6  1  0
  1  6  1  0
  7  8  2  0
  7  9  1  0
  2  7  1  0
  1 10  2  0
 11 12  1  0
 12 13  2  0
 13 14  1  0
 14 15  2  0
 15 16  1  0
 11 16  2  0
 17 18  1  0
 18 19  1  0
 19 20  1  0
 20 21  1  0
 21 22  1  0
 17 22  1  0
 20 23  1  0
 14 17  1  0
  9 11  1  0
  3 24  1  0
 24 25  1  0
 25 26  1  0
 26 27  1  0
 27 28  2  0
 28 29  1  0
 29 30  2  0
 30 31  1  0
 31 32  2  0
 32 27  1  0
 30 33  1  0
M  END
> <chembl_id>
CHEMBL3780553

$$$$

  SciTegic11131815162D

 30 33  0  0  1  0            999 V2000
    3.8969    0.4545    0.0000 C   0  0
    3.8990   -0.7455    0.0000 C   0  0  1  0  0  0
    2.6003   -1.4977    0.0000 N   0  0
    1.2990   -0.7500    0.0000 C   0  0
    1.2990    0.7500    0.0000 N   0  0
    0.0000    1.5000    0.0000 C   0  0
   -1.2990    0.7500    0.0000 N   0  0
   -1.2990   -0.7500    0.0000 C   0  0
   -2.4133   -1.7530    0.0000 S   0  0
   -1.8032   -3.1233    0.0000 C   0  0
   -2.4134   -4.4924    0.0000 C   0  0
   -1.5318   -5.7059    0.0000 N   0  0
   -0.0400   -5.5491    0.0000 C   0  0
    0.5701   -4.1788    0.0000 C   0  0
   -0.3114   -2.9665    0.0000 C   0  0
    0.0000   -1.5000    0.0000 C   0  0
   -2.1394   -7.0782    0.0000 C   0  0
   -3.3326   -7.2057    0.0000 O   0  0
   -1.2555   -8.2912    0.0000 C   0  0
   -1.8631   -9.6635    0.0000 C   0  0
   -0.9792  -10.8764    0.0000 C   0  0
   -1.5868  -12.2487    0.0000 N   0  0
   -0.8800  -13.2185    0.0000 C   0  0
   -2.7800  -12.3763    0.0000 C   0  0
    5.2003   -1.4932    0.0000 C   0  0
    5.2056   -2.9933    0.0000 C   0  0
    6.5072   -3.7388    0.0000 C   0  0
    7.8036   -2.9844    0.0000 C   0  0
    7.7985   -1.4844    0.0000 C   0  0
    6.4969   -0.7388    0.0000 C   0  0
  2  1  1  6
  2  3  1  0
  3  4  1  0
  4  5  2  0
  5  6  1  0
  6  7  2  0
  7  8  1  0
  8  9  1  0
  9 10  1  0
 10 11  1  0
 11 12  1  0
 12 13  1  0
 13 14  1  0
 14 15  1  0
 15 10  2  0
 15 16  1  0
 16  4  1  0
 16  8  2  0
 12 17  1  0
 17 18  2  0
 17 19  1  0
 19 20  2  0
 20 21  1  0
 21 22  1  0
 22 23  1  0
 22 24  1  0
  2 25  1  0
 25 26  2  0
 26 27  1  0
 27 28  2  0
 28 29  1  0
 29 30  2  0
 30 25  1  0
M  END
> <chembl_id>
CHEMBL1271561

$$$$

  SciTegic05061409512D

 24 26  0  0  0  0            999 V2000
   19.1294  -10.9027    0.0000 N   0  0
   19.8391  -10.4932    0.0000 C   0  0
   19.8363   -9.6706    0.0000 N   0  0
   19.1276   -9.2653    0.0000 C   0  0
   18.4214  -10.4937    0.0000 C   0  0
   18.4237   -9.6718    0.0000 C   0  0
   17.7142   -9.2607    0.0000 C   0  0
   17.0019   -9.6703    0.0000 C   0  0
   17.0036  -10.4954    0.0000 C   0  0
   17.7137  -10.9028    0.0000 C   0  0
   19.1259   -8.4481    0.0000 N   0  0
   16.2941   -9.2619    0.0000 N   0  0
   15.5865   -9.6706    0.0000 C   0  0
   14.8787   -9.2621    0.0000 C   0  0
   15.5866  -10.4878    0.0000 O   0  0
   14.1711   -9.6708    0.0000 C   0  0
   19.8328   -8.0381    0.0000 C   0  0
   20.5417   -8.4502    0.0000 C   0  0
   21.2481   -8.0409    0.0000 C   0  0
   21.2468   -7.2228    0.0000 C   0  0
   20.5333   -6.8158    0.0000 C   0  0
   19.8298   -7.2276    0.0000 C   0  0
   19.1202   -6.8224    0.0000 C   0  0
   19.1163   -6.0052    0.0000 C   0  0
  5  1  1  0
  1  2  2  0
  2  3  1  0
  3  4  2  0
  4  6  1  0
  5  6  1  0
  6  7  2  0
  7  8  1  0
  8  9  2  0
  9 10  1  0
 10  5  2  0
  4 11  1  0
  8 12  1  0
 12 13  1  0
 13 14  1  0
 13 15  2  0
 14 16  2  0
 11 17  1  0
 17 18  2  0
 18 19  1  0
 19 20  2  0
 20 21  1  0
 21 22  2  0
 22 17  1  0
 22 23  1  0
 23 24  1  0
M  END
> <chembl_id>
CHEMBL3133907

$$$$

  SciTegic12121614122D

 41 45  0  0  0  0            999 V2000
   -1.2913    7.5063    0.0000 C   0  0
   -2.5882    8.2616    0.0000 C   0  0
   -2.5845    9.4615    0.0000 C   0  0
   -0.2500    8.1028    0.0000 O   0  0
   -1.2959    6.0055    0.0000 N   0  0
    0.0011    5.2503    0.0000 C   0  0
   -0.0014    3.7503    0.0000 C   0  0
    1.2964    2.9980    0.0000 C   0  0
    2.5967    3.7460    0.0000 C   0  0
    2.5992    5.2460    0.0000 C   0  0
    1.3014    5.9981    0.0000 C   0  0
   -2.6111    0.7486    0.0000 C   0  0
   -1.2964    1.4973    0.0000 N   0  0
    0.0000    0.7486    0.0000 C   0  0
    0.0000   -0.7486    0.0000 C   0  0
   -1.2964   -1.4973    0.0000 C   0  0
   -2.6111   -0.7486    0.0000 N   0  0
    1.2964   -1.4973    0.0000 C   0  0
    2.5929   -0.7486    0.0000 C   0  0
    2.5929    0.7486    0.0000 C   0  0
    1.2964    1.4973    0.0000 N   0  0
    1.2995   -2.9981    0.0000 C   0  0
    2.6003   -3.7467    0.0000 C   0  0
    2.6028   -4.9467    0.0000 C   0  0
    3.6321    1.3486    0.0000 O   0  0
   -3.9122    1.4966    0.0000 N   0  0
   -5.2109    0.7445    0.0000 C   0  0
   -6.5125    1.4901    0.0000 C   0  0
   -7.8091    0.7359    0.0000 C   0  0
   -7.8042   -0.7641    0.0000 C   0  0
   -6.5027   -1.5098    0.0000 C   0  0
   -5.2061   -0.7556    0.0000 C   0  0
   -9.1014   -1.5188    0.0000 N   0  0
  -10.4041   -0.7752    0.0000 C   0  0
  -11.6995   -1.5315    0.0000 C   0  0
  -11.6922   -3.0315    0.0000 N   0  0
  -10.3895   -3.7751    0.0000 C   0  0
   -9.0942   -3.0188    0.0000 C   0  0
  -12.7285   -3.6365    0.0000 C   0  0
   -6.5206    2.9910    0.0000 O   0  0
   -7.5627    3.5860    0.0000 C   0  0
  1  2  1  0
  2  3  2  0
  1  4  2  0
  1  5  1  0
  6  7  1  0
  7  8  2  0
  8  9  1  0
  9 10  2  0
 10 11  1  0
  6 11  2  0
 12 13  1  0
 13 14  2  0
 14 15  1  0
 15 16  2  0
 16 17  1  0
 12 17  2  0
 18 19  2  0
 19 20  1  0
 20 21  1  0
 14 21  1  0
 15 18  1  0
 22 23  1  0
 23 24  1  0
 18 22  1  0
 20 25  2  0
 27 28  1  0
 28 29  2  0
 29 30  1  0
 30 31  2  0
 31 32  1  0
 27 32  2  0
 33 34  1  0
 34 35  1  0
 35 36  1  0
 36 37  1  0
 37 38  1  0
 33 38  1  0
 36 39  1  0
 30 33  1  0
 40 41  1  0
 28 40  1  0
 26 27  1  0
 12 26  1  0
  8 21  1  0
  5  6  1  0
M  END
> <chembl_id>
CHEMBL3753874

$$$$

  SciTegic04091414152D

 33 37  0  0  0  0            999 V2000
    3.1361   -1.8125    0.0000 N   0  0
    3.1349   -2.6398    0.0000 C   0  0
    3.8498   -3.0527    0.0000 N   0  0
    3.8480   -1.3997    0.0000 C   0  0
    4.5634   -1.8088    0.0000 C   0  0
    4.5642   -2.6357    0.0000 C   0  0
    5.2794   -3.0467    0.0000 N   0  0
    5.9945   -2.6319    0.0000 C   0  0
    5.9897   -1.8019    0.0000 N   0  0
    5.2738   -1.3947    0.0000 C   0  0
    2.4201   -3.0518    0.0000 N   0  0
    6.7106   -3.0416    0.0000 O   0  0
    6.7016   -1.3850    0.0000 C   0  0
    2.4195   -3.8768    0.0000 C   0  0
    1.7046   -4.2872    0.0000 C   0  0
    1.7035   -5.1114    0.0000 C   0  0
    2.4182   -5.5254    0.0000 C   0  0
    3.1354   -5.1089    0.0000 C   0  0
    3.1329   -4.2861    0.0000 C   0  0
    5.2812   -3.8717    0.0000 C   0  0  1  0  0  0
    4.6170   -4.3574    0.0000 C   0  0
    4.8736   -5.1415    0.0000 C   0  0
    5.6986   -5.1398    0.0000 N   0  0
    5.9518   -4.3547    0.0000 C   0  0
    6.1059   -5.8574    0.0000 C   0  0
    5.6884   -6.5691    0.0000 C   0  0
    6.9309   -5.8632    0.0000 O   0  0
    6.0960   -7.2864    0.0000 C   0  0
    7.4160   -1.7960    0.0000 C   0  0
    8.1258   -1.3827    0.0000 C   0  0
    8.1251   -0.5573    0.0000 C   0  0
    7.4082   -0.1470    0.0000 C   0  0
    6.6922   -0.5619    0.0000 C   0  0
  1  2  2  0
  2  3  1  0
  3  6  2  0
  5  4  2  0
  4  1  1  0
  5  6  1  0
  6  7  1  0
  7  8  1  0
  8  9  1  0
  9 10  1  0
 10  5  1  0
  2 11  1  0
  8 12  2  0
  9 13  1  0
 11 14  1  0
 14 15  2  0
 15 16  1  0
 16 17  2  0
 17 18  1  0
 18 19  2  0
 19 14  1  0
 20  7  1  6
 20 21  1  0
 21 22  1  0
 22 23  1  0
 23 24  1  0
 24 20  1  0
 23 25  1  0
 25 26  1  0
 25 27  2  0
 26 28  2  0
 13 29  2  0
 13 33  1  0
 29 30  1  0
 30 31  2  0
 31 32  1  0
 32 33  2  0
M  END
> <chembl_id>
CHEMBL3087197

$$$$

  SciTegic12131615502D

 42 48  0  0  0  0            999 V2000
    3.7345    1.5436    0.0000 C   0  0
    4.8300    2.8133    0.0000 C   0  0
    3.7345    0.0000    0.0000 C   0  0
    6.1246    2.2656    0.0000 C   0  0
    5.2034   -0.5726    0.0000 C   0  0
    6.1246    0.5726    0.0000 C   0  0
    2.5893   -0.5726    0.0000 C   0  0
    3.5602    0.5726    0.0000 C   0  0
    3.5602    2.2656    0.0000 C   0  0
    5.0291    0.0249    0.0000 C   0  0
   -0.5794    2.3239    0.0000 C   0  0
   -1.9600    2.9103    0.0000 C   0  0
   -3.1582    2.0079    0.0000 C   0  0
   -2.9757    0.5191    0.0000 C   0  0
   -1.5951   -0.0674    0.0000 C   0  0
   -0.3969    0.8350    0.0000 C   0  0
   -4.5407    2.5919    0.0000 N   0  0
   -8.1338   -0.1102    0.0000 N   0  0
   -6.7458   -0.7121    0.0000 C   0  0
   -5.5484    0.1869    0.0000 N   0  0
   -5.7383    1.6872    0.0000 C   0  0
   -7.1162    2.2750    0.0000 C   0  0
   -7.2958    3.7613    0.0000 C   0  0
   -8.6729    4.3485    0.0000 C   0  0
   -9.8703    3.4495    0.0000 C   0  0
   -9.6906    1.9633    0.0000 C   0  0
   -8.3135    1.3761    0.0000 C   0  0
   -8.8501    5.8389    0.0000 O   0  0
   -7.6486    6.7383    0.0000 C   0  0
   -7.8258    8.2286    0.0000 C   0  0
   -6.6244    9.1280    0.0000 C   0  0
   -7.1619   13.5967    0.0000 O   0  0
   -5.7822   13.0081    0.0000 C   0  0
   -5.6020   11.5190    0.0000 C   0  0
   -6.8016   10.6183    0.0000 N   0  0
   -8.1813   11.2070    0.0000 C   0  0
   -8.3614   12.6961    0.0000 C   0  0
  -11.2520    4.0356    0.0000 O   0  0
  -12.2106    3.3137    0.0000 C   0  0
    0.9857    0.2510    0.0000 C   0  0
    2.1833    1.1556    0.0000 N   0  0
    1.1337   -0.9398    0.0000 O   0  0
  1  2  1  0
  1  3  1  0
  2  4  1  0
  3  5  1  0
  4  6  1  0
  5  6  1  0
  7  8  1  0
  3  7  1  0
  2  9  1  0
  6 10  1  0
 10  8  1  0
  8  9  1  0
 11 12  1  0
 12 13  2  0
 13 14  1  0
 14 15  2  0
 15 16  1  0
 11 16  2  0
 18 19  1  0
 19 20  2  0
 20 21  1  0
 21 22  2  0
 22 23  1  0
 23 24  2  0
 24 25  1  0
 25 26  2  0
 26 27  1  0
 18 27  2  0
 22 27  1  0
 29 30  1  0
 30 31  1  0
 28 29  1  0
 32 33  1  0
 33 34  1  0
 34 35  1  0
 35 36  1  0
 36 37  1  0
 32 37  1  0
 31 35  1  0
 24 28  1  0
 38 39  1  0
 25 38  1  0
 17 21  1  0
 13 17  1  0
 16 40  1  0
 40 41  1  0
 40 42  2  0
 41  8  1  0
M  END
> <chembl_id>
CHEMBL3763627

$$$$

  SciTegic12091611202D

 29 31  0  0  0  0            999 V2000
   -7.5133    0.6990    0.0000 C   0  0
   -6.2219    1.4621    0.0000 N   0  0
   -4.9153    0.7255    0.0000 C   0  0
   -4.9001   -0.7745    0.0000 C   0  0
   -6.1914   -1.5377    0.0000 C   0  0
   -7.4980   -0.8010    0.0000 N   0  0
   -8.8221    1.4334    0.0000 O   0  0
   -3.6217    1.4865    0.0000 N   0  0
  -10.1131    0.6680    0.0000 C   0  0
  -11.4219    1.4024    0.0000 C   0  0
  -11.4362    2.6023    0.0000 C   0  0
  -12.7129    0.6370    0.0000 S   0  0
  -13.7594    1.2242    0.0000 O   0  0
  -13.7448    0.0245    0.0000 O   0  0
  -12.6986   -0.5629    0.0000 C   0  0
  -10.3900    2.0149    0.0000 C   0  0
   -1.0028   -1.5132    0.0000 C   0  0
    0.2917   -0.7475    0.0000 C   0  0
    0.2917    0.7475    0.0000 C   0  0
   -1.0028    1.5132    0.0000 C   0  0
   -2.3155    0.7475    0.0000 C   0  0
   -2.3155   -0.7475    0.0000 N   0  0
    2.5889    0.0182    0.0000 C   0  0
    1.7138   -1.2033    0.0000 N   0  0
    1.7138    1.2033    0.0000 N   0  0
    3.7889    0.0269    0.0000 C   0  0
    2.1812    2.6271    0.0000 C   0  0
    3.3556    2.8737    0.0000 C   0  0
    1.3808    3.5211    0.0000 C   0  0
  1  2  1  0
  2  3  2  0
  3  4  1  0
  4  5  2  0
  5  6  1  0
  1  6  2  0
  1  7  1  0
  3  8  1  0
  9 10  1  0
 10 11  1  0
 12 13  2  0
 12 14  2  0
 12 15  1  0
 10 12  1  0
 10 16  1  0
  7  9  1  0
 17 18  1  0
 18 19  2  0
 19 20  1  0
 20 21  2  0
 21 22  1  0
 17 22  2  0
 23 24  2  0
 23 25  1  0
 18 24  1  0
 19 25  1  0
 23 26  1  0
 27 28  1  0
 27 29  1  0
 25 27  1  0
  8 21  1  0
M  END
> <chembl_id>
CHEMBL3736210

$$$$

  SciTegic04191617032D

 32 35  0  0  0  0            999 V2000
    1.2990   -0.7500    0.0000 C   0  0
    1.2990    0.7500    0.0000 C   0  0
    0.0000    1.5000    0.0000 N   0  0
   -1.2990    0.7500    0.0000 C   0  0
   -1.2990   -0.7500    0.0000 N   0  0
    0.0000   -1.5000    0.0000 C   0  0
    0.0031   -3.0008    0.0000 N   0  0
    1.3039   -3.7494    0.0000 C   0  0
    1.4469   -5.2297    0.0000 C   0  0
    2.9152   -5.5365    0.0000 C   0  0
    3.6607   -4.2349    0.0000 N   0  0
    2.6532   -3.1236    0.0000 N   0  0
    3.4071   -6.6311    0.0000 C   0  0
   -2.6003    1.4977    0.0000 O   0  0
   -3.8990    0.7455    0.0000 C   0  0
   -5.2007    1.4909    0.0000 C   0  0
   -6.4972    0.7364    0.0000 C   0  0
   -6.4920   -0.7636    0.0000 C   0  0
   -5.1903   -1.5091    0.0000 C   0  0
   -3.8939   -0.7546    0.0000 C   0  0
    2.5987    1.5004    0.0000 N   0  0
    3.8991    0.7525    0.0000 C   0  0
    5.1969    1.5046    0.0000 C   0  0
    5.1945    3.0046    0.0000 N   0  0
    3.8943    3.7525    0.0000 C   0  0
    2.5964    3.0004    0.0000 C   0  0
    6.2328    3.6062    0.0000 C   0  0
   -5.1821   -3.0099    0.0000 N   0  0
   -3.8787   -3.7540    0.0000 C   0  0
   -3.8704   -5.2548    0.0000 C   0  0
   -2.8426   -3.1486    0.0000 O   0  0
   -2.8282   -5.8497    0.0000 C   0  0
  1  2  2  0
  2  3  1  0
  3  4  2  0
  4  5  1  0
  5  6  2  0
  6  1  1  0
  6  7  1  0
  7  8  1  0
  8  9  1  0
  9 10  2  0
 10 11  1  0
 11 12  1  0
 12  8  2  0
 10 13  1  0
  4 14  1  0
 14 15  1  0
 15 16  2  0
 16 17  1  0
 17 18  2  0
 18 19  1  0
 19 20  2  0
 20 15  1  0
  2 21  1  0
 21 22  1  0
 21 26  1  0
 22 23  1  0
 23 24  1  0
 24 25  1  0
 25 26  1  0
 24 27  1  0
 19 28  1  0
 28 29  1  0
 29 30  1  0
 29 31  2  0
 30 32  2  0
M  END
> <chembl_id>
CHEMBL3604921

$$$$

  SciTegic01161211252D

 37 42  0  0  0  0            999 V2000
   10.8345   -2.3986    0.0000 C   0  0
   10.8333   -3.2268    0.0000 C   0  0
   11.5489   -3.6401    0.0000 C   0  0
   12.2658   -3.2263    0.0000 C   0  0
   12.2629   -2.3950    0.0000 C   0  0
   11.5471   -1.9856    0.0000 C   0  0
   12.9821   -3.6357    0.0000 C   0  0
   13.0692   -4.4572    0.0000 C   0  0
   13.7360   -3.2986    0.0000 N   0  0
   14.2895   -3.9113    0.0000 C   0  0
   13.8799   -4.6262    0.0000 N   0  0
   14.4333   -5.2367    0.0000 C   0  0
   15.1851   -4.8990    0.0000 C   0  0
   15.0960   -4.0799    0.0000 S   0  0
   12.3608   -4.8789    0.0000 C   0  0
   11.6404   -4.4734    0.0000 C   0  0
   10.9310   -4.8943    0.0000 C   0  0
   12.3724   -5.7012    0.0000 N   0  0
   11.6661   -6.1246    0.0000 C   0  0
   10.9370   -5.7218    0.0000 N   0  0
   11.6806   -6.9502    0.0000 N   0  0
   10.9729   -7.3756    0.0000 C   0  0
   10.2553   -6.9727    0.0000 C   0  0
    9.5481   -7.3974    0.0000 C   0  0
    9.5621   -8.2239    0.0000 C   0  0
   10.2894   -8.6239    0.0000 C   0  0
   10.9937   -8.1969    0.0000 C   0  0
   11.5448   -1.1975    0.0000 N   0  0
   10.8501   -0.7514    0.0000 C   0  0
   10.8891    0.0735    0.0000 C   0  0
   10.1163   -1.1300    0.0000 O   0  0
   11.6251    0.4490    0.0000 C   0  0
   11.6645    1.2731    0.0000 C   0  0
   10.9692    1.7201    0.0000 C   0  0
   10.2328    1.3372    0.0000 C   0  0
   10.1971    0.5144    0.0000 C   0  0
   12.3188    0.0012    0.0000 Cl  0  0
  4  5  1  0
  2  3  1  0
  5  6  2  0
  6  1  1  0
  7  8  2  0
 11 12  1  0
 12 13  2  0
 13 14  1  0
 14 10  1  0
 19 21  1  0
  1  2  2  0
 21 22  1  0
  3  4  2  0
 22 23  2  0
 15 16  2  0
 23 24  1  0
 24 25  2  0
 16 17  1  0
 25 26  1  0
 17 20  2  0
 26 27  2  0
 27 22  1  0
  6 28  1  0
  8 11  1  0
 19 18  2  0
 18 15  1  0
  8 15  1  0
 19 20  1  0
 10  9  2  0
  9  7  1  0
  4  7  1  0
 10 11  1  0
 28 29  1  0
 29 30  1  0
 29 31  2  0
 30 32  2  0
 32 33  1  0
 33 34  2  0
 34 35  1  0
 35 36  2  0
 36 30  1  0
 32 37  1  0
M  END
> <chembl_id>
CHEMBL1093815

$$$$

  SciTegic08011209522D

 35 39  0  0  0  0            999 V2000
   28.0819   -6.7666    0.0000 N   0  0
   28.0807   -7.5940    0.0000 C   0  0
   28.7956   -8.0069    0.0000 N   0  0
   28.7938   -6.3539    0.0000 C   0  0
   29.5091   -6.7630    0.0000 C   0  0
   29.5126   -7.5961    0.0000 C   0  0
   30.2317   -8.0074    0.0000 N   0  0
   30.9521   -7.5902    0.0000 C   0  0
   30.9487   -6.7571    0.0000 N   0  0
   30.2249   -6.3412    0.0000 C   0  0
   30.2357   -8.8289    0.0000 C   0  0
   29.5207   -9.2428    0.0000 C   0  0
   29.5226  -10.0670    0.0000 C   0  0
   30.2388  -10.4784    0.0000 C   0  0
   30.9545  -10.0595    0.0000 C   0  0
   30.9491   -9.2366    0.0000 C   0  0
   27.3659   -8.0059    0.0000 N   0  0
   27.3653   -8.8309    0.0000 C   0  0
   26.6504   -9.2413    0.0000 C   0  0
   26.6494  -10.0655    0.0000 C   0  0
   27.3641  -10.4794    0.0000 C   0  0
   28.0812  -10.0631    0.0000 C   0  0
   28.0787   -9.2402    0.0000 C   0  0
   31.6677   -8.0007    0.0000 O   0  0
   31.6715  -10.4675    0.0000 N   0  0
   27.3645  -11.3044    0.0000 N   0  0
   31.6619   -6.3424    0.0000 C   0  0
   26.6476  -11.7140    0.0000 C   0  0
   26.6461  -12.5354    0.0000 C   0  0
   27.3589  -12.9514    0.0000 N   0  0
   28.0750  -12.5397    0.0000 C   0  0
   28.0782  -11.7121    0.0000 C   0  0
   27.3562  -13.7764    0.0000 C   0  0
   25.9367   -8.8275    0.0000 O   0  0
   25.9382   -8.0025    0.0000 C   0  0
  4  1  1  0
  2 17  1  0
  5 10  1  0
 17 18  1  0
  6  7  1  0
 18 19  2  0
  7  8  1  0
 19 20  1  0
  8  9  1  0
 20 21  2  0
  9 10  1  0
 21 22  1  0
  5  6  1  0
 22 23  2  0
 23 18  1  0
  8 24  2  0
 11 12  2  0
 15 25  1  0
  2  3  1  0
 21 26  1  0
 12 13  1  0
  9 27  1  0
 26 28  1  0
  3  6  2  0
 13 14  2  0
  1  2  2  0
 14 15  1  0
  5  4  2  0
 26 32  1  0
 28 29  1  0
 29 30  1  0
 30 31  1  0
 31 32  1  0
 15 16  2  0
 30 33  1  0
 16 11  1  0
 19 34  1  0
  7 11  1  0
 34 35  1  0
M  END
> <chembl_id>
CHEMBL2029442

$$$$

  SciTegic11131810032D

 39 42  0  0  0  0            999 V2000
    3.6387   -0.8963    0.0000 C   0  0
    2.6003   -1.4977    0.0000 O   0  0
    1.2990   -0.7500    0.0000 C   0  0
    1.2990    0.7500    0.0000 C   0  0
    0.0000    1.5000    0.0000 C   0  0
   -0.0031    3.0008    0.0000 N   0  0
   -1.3039    3.7494    0.0000 C   0  0
   -1.6524    5.1712    0.0000 C   0  0
   -3.0999    4.7779    0.0000 N   0  0
   -2.7066    3.3304    0.0000 C   0  0
   -4.3986    5.5180    0.0000 C   0  0
   -5.4348    4.9128    0.0000 O   0  0
   -4.4049    6.7180    0.0000 C   0  0
   -1.2990    0.7500    0.0000 C   0  0
   -1.2990   -0.7500    0.0000 C   0  0
    0.0000   -1.5000    0.0000 C   0  0
   -0.0031   -3.0008    0.0000 N   0  0
   -1.3039   -3.7494    0.0000 C   0  0
   -1.3092   -5.2494    0.0000 N   0  0
   -2.6108   -5.9949    0.0000 C   0  0
   -3.9072   -5.2404    0.0000 C   0  0
   -3.9020   -3.7404    0.0000 C   0  0
   -5.1977   -2.9829    0.0000 N   0  0
   -5.1903   -1.4821    0.0000 C   0  0
   -6.4841   -0.7230    0.0000 C   0  0
   -6.4738    0.7769    0.0000 C   0  0
   -5.1696    1.5179    0.0000 C   0  0
   -3.8758    0.7590    0.0000 C   0  0
   -2.5693    1.4977    0.0000 N   0  0
   -1.2759    0.7365    0.0000 C   0  0
   -1.2862   -0.4635    0.0000 O   0  0
    0.0306    1.4752    0.0000 C   0  0
    1.0648    0.8666    0.0000 C   0  0
   -3.8861   -0.7410    0.0000 C   0  0
   -2.6004   -2.9949    0.0000 N   0  0
   -5.2096   -5.9864    0.0000 C   0  0
   -5.2145   -7.1863    0.0000 F   0  0
   -6.2465   -5.3824    0.0000 F   0  0
   -6.2512   -6.5823    0.0000 F   0  0
  1  2  1  0
  2  3  1  0
  3  4  2  0
  4  5  1  0
  5  6  1  0
  6  7  1  0
  7  8  1  0
  8  9  1  0
  9 10  1  0
 10  7  1  0
  9 11  1  0
 11 12  2  0
 11 13  1  0
  5 14  2  0
 14 15  1  0
 15 16  2  0
 16  3  1  0
 16 17  1  0
 17 18  1  0
 18 19  2  0
 19 20  1  0
 20 21  2  0
 21 22  1  0
 22 23  1  0
 23 24  1  0
 24 25  2  0
 25 26  1  0
 26 27  2  0
 27 28  1  0
 28 29  1  0
 29 30  1  0
 30 31  2  0
 30 32  1  0
 32 33  2  0
 28 34  2  0
 34 24  1  0
 22 35  2  0
 35 18  1  0
 21 36  1  0
 36 37  1  0
 36 38  1  0
 36 39  1  0
M  END
> <chembl_id>
CHEMBL3956925

$$$$

  SciTegic12131615502D

 43 49  0  0  0  0            999 V2000
    3.7345    1.5436    0.0000 C   0  0
    4.8300    2.8133    0.0000 C   0  0
    3.7345    0.0000    0.0000 C   0  0
    6.1246    2.2656    0.0000 C   0  0
    5.2034   -0.5726    0.0000 C   0  0
    6.1246    0.5726    0.0000 C   0  0
    2.5893   -0.5726    0.0000 C   0  0
    3.5602    0.5726    0.0000 C   0  0
    3.5602    2.2656    0.0000 C   0  0
    5.0291    0.0249    0.0000 C   0  0
   -1.5951   -0.0674    0.0000 C   0  0
   -2.9758    0.5191    0.0000 C   0  0
   -3.1582    2.0079    0.0000 C   0  0
   -1.9600    2.9103    0.0000 C   0  0
   -0.5794    2.3239    0.0000 C   0  0
   -0.3969    0.8350    0.0000 C   0  0
   -4.5383    2.5976    0.0000 N   0  0
   -5.0883    7.0595    0.0000 N   0  0
   -3.6914    6.4784    0.0000 C   0  0
   -3.5071    4.9925    0.0000 N   0  0
   -4.7187    4.0875    0.0000 C   0  0
   -6.0984    4.6711    0.0000 C   0  0
   -7.2928    3.7685    0.0000 C   0  0
   -8.6715    4.3519    0.0000 C   0  0
   -8.8558    5.8377    0.0000 C   0  0
   -7.6614    6.7403    0.0000 C   0  0
   -6.2827    6.1569    0.0000 C   0  0
   -9.8671    3.4447    0.0000 O   0  0
   -9.6803    1.9555    0.0000 C   0  0
  -10.8759    1.0483    0.0000 C   0  0
  -10.6890   -0.4408    0.0000 C   0  0
  -14.2783   -3.1565    0.0000 O   0  0
  -12.8968   -3.7409    0.0000 C   0  0
  -11.7000   -2.8366    0.0000 C   0  0
  -11.8846   -1.3480    0.0000 N   0  0
  -13.2662   -0.7637    0.0000 C   0  0
  -14.4630   -1.6679    0.0000 C   0  0
  -10.2369    6.4253    0.0000 O   0  0
  -10.3829    7.6164    0.0000 C   0  0
    0.9857    0.2510    0.0000 C   0  0
    2.1833    1.1556    0.0000 N   0  0
    1.1337   -0.9398    0.0000 O   0  0
   -1.4492   -1.2585    0.0000 Cl  0  0
  1  2  1  0
  1  3  1  0
  2  4  1  0
  3  5  1  0
  4  6  1  0
  5  6  1  0
  7  8  1  0
  3  7  1  0
  2  9  1  0
  6 10  1  0
 10  8  1  0
  8  9  1  0
 11 12  1  0
 12 13  2  0
 13 14  1  0
 14 15  2  0
 15 16  1  0
 11 16  2  0
 18 19  1  0
 19 20  2  0
 20 21  1  0
 21 22  2  0
 22 23  1  0
 23 24  2  0
 24 25  1  0
 25 26  2  0
 26 27  1  0
 18 27  2  0
 22 27  1  0
 29 30  1  0
 30 31  1  0
 28 29  1  0
 32 33  1  0
 33 34  1  0
 34 35  1  0
 35 36  1  0
 36 37  1  0
 32 37  1  0
 31 35  1  0
 24 28  1  0
 38 39  1  0
 25 38  1  0
 17 21  1  0
 13 17  1  0
 16 40  1  0
 40 41  1  0
 40 42  2  0
 41  8  1  0
 11 43  1  0
M  END
> <chembl_id>
CHEMBL3763405

$$$$

  SciTegic12091611192D

 28 31  0  0  0  0            999 V2000
   -3.6217    1.4865    0.0000 N   0  0
   -7.5133    0.6990    0.0000 C   0  0
   -6.2219    1.4621    0.0000 N   0  0
   -4.9153    0.7255    0.0000 C   0  0
   -4.9001   -0.7745    0.0000 C   0  0
   -6.1914   -1.5377    0.0000 C   0  0
   -7.4980   -0.8010    0.0000 N   0  0
   -8.8205    1.4361    0.0000 N   0  0
   -8.8383    2.9360    0.0000 C   0  0
  -10.1461    3.6707    0.0000 C   0  0
  -11.4362    2.9055    0.0000 C   0  0
  -11.4185    1.4056    0.0000 C   0  0
  -10.1108    0.6709    0.0000 C   0  0
  -12.7462    3.6378    0.0000 O   0  0
  -13.7774    3.0242    0.0000 C   0  0
   -1.0028   -1.5132    0.0000 C   0  0
    0.2917   -0.7475    0.0000 C   0  0
    0.2917    0.7475    0.0000 C   0  0
   -1.0028    1.5132    0.0000 C   0  0
   -2.3155    0.7475    0.0000 C   0  0
   -2.3155   -0.7475    0.0000 N   0  0
    2.5889    0.0182    0.0000 C   0  0
    1.7138   -1.2033    0.0000 N   0  0
    1.7138    1.2033    0.0000 N   0  0
    2.1812    2.6271    0.0000 C   0  0
    1.3808    3.5211    0.0000 C   0  0
    3.6500    2.9355    0.0000 C   0  0
    4.0244    4.0756    0.0000 C   0  0
  2  3  1  0
  3  4  2  0
  4  5  1  0
  5  6  2  0
  6  7  1  0
  2  7  2  0
  8  9  1  0
  9 10  1  0
 10 11  1  0
 11 12  1  0
 12 13  1  0
  8 13  1  0
 14 15  1  0
 11 14  1  0
  2  8  1  0
  1  4  1  0
 16 17  1  0
 17 18  2  0
 18 19  1  0
 19 20  2  0
 20 21  1  0
 16 21  2  0
 22 23  2  0
 22 24  1  0
 17 23  1  0
 18 24  1  0
  1 20  1  0
 24 25  1  0
 25 26  1  0
 25 27  1  0
 27 28  1  0
M  END
> <chembl_id>
CHEMBL3735250

$$$$

  SciTegic05221516342D

 39 42  0  0  0  0            999 V2000
    1.8352  -28.3004    0.0000 C   0  0
    1.8341  -29.1199    0.0000 C   0  0
    2.5421  -29.5289    0.0000 N   0  0
    3.2518  -29.1194    0.0000 C   0  0
    3.2489  -28.2968    0.0000 N   0  0
    2.5403  -27.8915    0.0000 C   0  0
    2.5384  -27.0744    0.0000 C   0  0
    3.1980  -26.5921    0.0000 C   0  0
    2.9432  -25.8156    0.0000 N   0  0
    1.8759  -26.5960    0.0000 C   0  0
    2.1227  -25.8149    0.0000 C   0  0
    1.5727  -25.2139    0.0000 C   0  0
    0.7729  -25.3884    0.0000 C   0  0
    0.5261  -26.1695    0.0000 C   0  0
    1.0790  -26.7762    0.0000 C   0  0
    3.9601  -29.5269    0.0000 N   0  0
    4.6672  -29.1172    0.0000 C   0  0
    5.3722  -29.5251    0.0000 C   0  0
    6.0788  -29.1161    0.0000 C   0  0
    6.0779  -28.2980    0.0000 C   0  0
    5.3646  -27.8907    0.0000 C   0  0
    4.6610  -28.3021    0.0000 C   0  0
    5.3723  -30.3423    0.0000 O   0  0
    4.6646  -30.7510    0.0000 C   0  0
    5.3604  -27.0735    0.0000 N   0  0
    4.6507  -26.6686    0.0000 C   0  0
    4.6465  -25.8514    0.0000 C   0  0
    3.9451  -27.0808    0.0000 O   0  0
    5.3521  -25.4392    0.0000 C   0  0
    6.7845  -27.8874    0.0000 N   0  0
    7.4933  -28.2939    0.0000 C   0  0
    6.7821  -27.0702    0.0000 C   0  0
    7.4957  -29.1111    0.0000 C   0  0
    8.2046  -29.5177    0.0000 N   0  0
    8.2070  -30.3349    0.0000 C   0  0
    8.9111  -29.1070    0.0000 C   0  0
    3.4228  -25.1540    0.0000 C   0  0
    1.1240  -27.8902    0.0000 C   0  0
    0.4162  -27.4817    0.0000 N   0  0
  1  2  2  0
  2  3  1  0
  3  4  2  0
  4  5  1  0
  5  6  2  0
  6  1  1  0
  7  8  2  0
  8  9  1  0
  9 11  1  0
 10  7  1  0
  6  7  1  0
 10 11  2  0
 10 15  1  0
 11 12  1  0
 12 13  2  0
 13 14  1  0
 14 15  2  0
  4 16  1  0
 16 17  1  0
 17 18  2  0
 18 19  1  0
 19 20  2  0
 20 21  1  0
 21 22  2  0
 22 17  1  0
 18 23  1  0
 23 24  1  0
 21 25  1  0
 25 26  1  0
 26 27  1  0
 26 28  2  0
 27 29  2  0
 20 30  1  0
 30 31  1  0
 30 32  1  0
 31 33  1  0
 33 34  1  0
 34 35  1  0
 34 36  1  0
  9 37  1  0
 38 39  3  0
  1 38  1  0
M  END
> <chembl_id>
CHEMBL3353406

$$$$

  SciTegic01181116592D

 42 48  0  0  0  0            999 V2000
   -3.1501   -0.5158    0.0000 C   0  0  2  0  0  0
   -3.6994   -1.1269    0.0000 C   0  0
   -3.4468   -1.9081    0.0000 C   0  0
   -2.6405   -2.0830    0.0000 C   0  0  1  0  0  0
   -2.0874   -1.4701    0.0000 C   0  0
   -2.3404   -0.6826    0.0000 C   0  0
   -3.4078    0.2676    0.0000 N   0  0
    0.9034    3.6913    0.0000 C   0  0
    1.6195    4.1081    0.0000 C   0  0
    1.6167    4.9355    0.0000 C   0  0
    0.9016    5.3512    0.0000 C   0  0
    2.3293    5.3534    0.0000 C   0  0
    0.9032    2.8666    0.0000 C   0  0
    0.1890    4.1086    0.0000 C   0  0
    0.1902    4.9376    0.0000 C   0  0
   -0.5974    5.1968    0.0000 N   0  0
   -1.0853    4.5253    0.0000 C   0  0
   -0.5994    3.8492    0.0000 O   0  0
   -1.9100    4.5241    0.0000 N   0  0
   -2.3234    3.8078    0.0000 C   0  0
   -3.1461    3.8123    0.0000 C   0  0
   -3.5594    3.0996    0.0000 C   0  0
   -3.1481    2.3839    0.0000 C   0  0
   -2.3193    2.3853    0.0000 C   0  0
   -1.9098    3.0986    0.0000 C   0  0
   -3.5558    4.5342    0.0000 F   0  0
   -3.4017    1.5996    0.0000 C   0  0
   -2.9218    0.9358    0.0000 N   0  0
   -4.1902    0.5223    0.0000 C   0  0
   -4.1884    1.3460    0.0000 C   0  0
   -4.8998    1.7576    0.0000 C   0  0
   -5.6135    1.3466    0.0000 N   0  0
   -5.6113    0.5198    0.0000 C   0  0
   -4.8993    0.1119    0.0000 N   0  0
   -2.3879   -2.8678    0.0000 N   0  0
   -2.9402   -3.4776    0.0000 C   0  0
   -2.6905   -4.2596    0.0000 C   0  0
   -1.8851   -4.4375    0.0000 N   0  0
   -1.3294   -3.8269    0.0000 C   0  0
   -1.5794   -3.0384    0.0000 C   0  0
   -1.6353   -5.2234    0.0000 C   0  0
   -4.8988    2.5822    0.0000 N   0  0
  9 10  1  0
 20 21  2  0
  3  4  1  0
 21 22  1  0
 10 11  2  0
 22 23  2  0
 11 15  1  0
 23 24  1  0
  4  5  1  0
 24 25  2  0
 25 20  1  0
 10 12  1  0
 21 26  1  0
  5  6  1  0
 23 27  1  0
 27 30  1  0
  8 13  1  0
 29  7  1  0
  7 28  1  0
 28 27  2  0
 14 15  2  0
  1  2  1  0
 29 30  2  0
  1  7  1  1
 30 31  1  0
 31 32  2  0
 14  8  1  0
 32 33  1  0
  1  6  1  0
 33 34  2  0
 34 29  1  0
 15 16  1  0
  4 35  1  1
 35 36  1  0
 16 17  2  0
 17 18  1  0
 18 14  1  0
  8  9  2  0
 17 19  1  0
 35 40  1  0
 36 37  1  0
 37 38  1  0
 38 39  1  0
 39 40  1  0
  2  3  1  0
 38 41  1  0
 19 20  1  0
 31 42  1  0
M  END
> <chembl_id>
CHEMBL1256417

$$$$

  SciTegic10311316282D

 35 39  0  0  0  0            999 V2000
   18.6446  -16.0880    0.0000 N   0  0
   18.6445  -16.9154    0.0000 C   0  0
   19.3598  -17.3274    0.0000 N   0  0
   19.3559  -15.6744    0.0000 C   0  0
   20.0718  -16.0826    0.0000 C   0  0
   20.0731  -16.9090    0.0000 C   0  0
   20.8596  -17.1632    0.0000 N   0  0
   21.3443  -16.4938    0.0000 C   0  0
   20.8575  -15.8260    0.0000 C   0  0
   21.1198  -17.9495    0.0000 C   0  0
   20.6360  -18.6177    0.0000 C   0  0
   21.1220  -19.2844    0.0000 C   0  0
   21.9062  -19.0282    0.0000 C   0  0
   21.9048  -18.2032    0.0000 C   0  0
   19.3524  -14.8494    0.0000 N   0  0
   21.1113  -15.0410    0.0000 C   0  0
   21.9180  -14.8682    0.0000 C   0  0
   20.5583  -14.4288    0.0000 O   0  0
   22.4650  -15.4818    0.0000 C   0  0
   23.2711  -15.3095    0.0000 C   0  0
   23.5255  -14.5238    0.0000 C   0  0
   22.9677  -13.9102    0.0000 C   0  0
   22.1637  -14.0856    0.0000 C   0  0
   23.2186  -13.1243    0.0000 N   0  0
   24.0247  -12.9487    0.0000 C   0  0
   24.2757  -12.1628    0.0000 N   0  0
   24.5799  -13.5590    0.0000 O   0  0
   25.0818  -11.9871    0.0000 C   0  0
   25.6344  -12.5983    0.0000 C   0  0
   26.4398  -12.4232    0.0000 C   0  0
   26.6915  -11.6366    0.0000 C   0  0
   26.1315  -11.0249    0.0000 C   0  0
   25.3282  -11.2032    0.0000 C   0  0
   24.7705  -10.5952    0.0000 F   0  0
   26.9947  -13.0337    0.0000 C   0  0
  1  2  2  0
  2  3  1  0
  3  6  2  0
  5  4  2  0
  4  1  1  0
  5  6  1  0
  6  7  1  0
  7  8  1  0
  8  9  2  0
  9  5  1  0
 10 11  1  0
 11 12  1  0
 12 13  1  0
 13 14  1  0
 14 10  1  0
  7 10  1  0
  4 15  1  0
  9 16  1  0
 16 17  1  0
 16 18  2  0
 17 19  2  0
 19 20  1  0
 20 21  2  0
 21 22  1  0
 22 23  2  0
 23 17  1  0
 22 24  1  0
 24 25  1  0
 25 26  1  0
 25 27  2  0
 26 28  1  0
 28 29  2  0
 29 30  1  0
 30 31  2  0
 31 32  1  0
 32 33  2  0
 33 28  1  0
 33 34  1  0
 30 35  1  0
M  END
> <chembl_id>
CHEMBL2387000

$$$$

  SciTegic04191617032D

 32 35  0  0  0  0            999 V2000
    1.2990   -0.7500    0.0000 C   0  0
    1.2990    0.7500    0.0000 C   0  0
    0.0000    1.5000    0.0000 N   0  0
   -1.2990    0.7500    0.0000 C   0  0
   -1.2990   -0.7500    0.0000 N   0  0
    0.0000   -1.5000    0.0000 C   0  0
    0.0031   -3.0008    0.0000 N   0  0
    1.3039   -3.7494    0.0000 C   0  0
    1.4469   -5.2297    0.0000 C   0  0
    2.9152   -5.5365    0.0000 C   0  0
    3.6607   -4.2349    0.0000 N   0  0
    2.6532   -3.1236    0.0000 N   0  0
    3.4071   -6.6311    0.0000 C   0  0
   -2.6003    1.4977    0.0000 O   0  0
   -3.8990    0.7455    0.0000 C   0  0
   -3.8939   -0.7546    0.0000 C   0  0
   -5.1903   -1.5091    0.0000 C   0  0
   -6.4920   -0.7636    0.0000 C   0  0
   -6.4972    0.7364    0.0000 C   0  0
   -5.2007    1.4909    0.0000 C   0  0
   -5.2091    2.9917    0.0000 N   0  0
   -6.5125    3.7357    0.0000 C   0  0
   -6.5208    5.2365    0.0000 C   0  0
   -7.5486    3.1303    0.0000 O   0  0
   -7.5630    5.8314    0.0000 C   0  0
    2.5987    1.5004    0.0000 N   0  0
    3.8991    0.7525    0.0000 C   0  0
    5.1969    1.5046    0.0000 C   0  0
    5.1945    3.0046    0.0000 N   0  0
    3.8943    3.7525    0.0000 C   0  0
    2.5964    3.0004    0.0000 C   0  0
    6.2328    3.6062    0.0000 C   0  0
  1  2  2  0
  2  3  1  0
  3  4  2  0
  4  5  1  0
  5  6  2  0
  6  1  1  0
  6  7  1  0
  7  8  1  0
  8  9  1  0
  9 10  2  0
 10 11  1  0
 11 12  1  0
 12  8  2  0
 10 13  1  0
  4 14  1  0
 14 15  1  0
 15 16  2  0
 16 17  1  0
 17 18  2  0
 18 19  1  0
 19 20  2  0
 20 15  1  0
 20 21  1  0
 21 22  1  0
 22 23  1  0
 22 24  2  0
 23 25  2  0
  2 26  1  0
 26 27  1  0
 26 31  1  0
 27 28  1  0
 28 29  1  0
 29 30  1  0
 30 31  1  0
 29 32  1  0
M  END
> <chembl_id>
CHEMBL3604920

$$$$

  SciTegic12091614152D

 30 32  0  0  0  0            999 V2000
    1.2990   -0.7500    0.0000 C   0  0
    1.2990    0.7500    0.0000 C   0  0
    0.0000    1.5000    0.0000 C   0  0
   -1.2990    0.7500    0.0000 C   0  0
   -1.2990   -0.7500    0.0000 C   0  0
    0.0000   -1.5000    0.0000 C   0  0
    2.5973   -1.5031    0.0000 N   0  0
   -0.0031    3.0008    0.0000 N   0  0
    1.2883   -5.2495    0.0000 C   0  0
    1.2935   -3.7495    0.0000 N   0  0
    2.5951   -3.0039    0.0000 C   0  0
    3.8915   -3.7585    0.0000 C   0  0
    3.8864   -5.2585    0.0000 C   0  0
    2.5847   -6.0040    0.0000 N   0  0
   -0.0125   -5.9981    0.0000 N   0  0
   -0.0155   -7.4989    0.0000 N   0  0
   -1.3163   -8.2475    0.0000 C   0  0
   -1.3194   -9.7484    0.0000 C   0  0
   -2.6184  -10.4985    0.0000 C   0  0
   -2.6184  -11.9985    0.0000 C   0  0
   -1.3193  -12.7484    0.0000 C   0  0
   -0.0203  -11.9984    0.0000 C   0  0
   -0.0203  -10.4984    0.0000 C   0  0
   -1.3193  -13.9484    0.0000 F   0  0
    4.9329   -3.1621    0.0000 Cl  0  0
   -1.3039    3.7494    0.0000 C   0  0
   -2.3421    3.1476    0.0000 O   0  0
   -1.3070    5.2502    0.0000 C   0  0
   -2.3471    5.8487    0.0000 C   0  0
   -2.3545   -7.6458    0.0000 C   0  0
  1  2  1  0
  2  3  2  0
  3  4  1  0
  4  5  2  0
  5  6  1  0
  1  6  2  0
  1  7  1  0
  3  8  1  0
  9 10  1  0
 10 11  2  0
 11 12  1  0
 12 13  2  0
 13 14  1  0
  9 14  2  0
 15 16  1  0
 17 18  1  0
 18 19  1  0
 19 20  2  0
 20 21  1  0
 21 22  2  0
 22 23  1  0
 18 23  2  0
 21 24  1  0
 16 17  2  0
  9 15  1  0
 12 25  1  0
  7 11  1  0
  8 26  1  0
 26 27  2  0
 26 28  1  0
 28 29  2  0
 17 30  1  0
M  END
> <chembl_id>
CHEMBL3741245

$$$$

  SciTegic11131810132D

 35 42  0  0  1  0            999 V2000
   -1.9211    5.8424    0.0000 C   0  0
   -2.5381    4.8132    0.0000 N   0  0
   -1.8100    3.5000    0.0000 C   0  0  2  0  0  0
   -0.2400    3.5200    0.0000 C   0  0
    0.5000    2.1800    0.0000 C   0  0  1  0  0  0
   -1.0600    2.1800    0.0000 O   0  0
   -1.8300    0.9300    0.0000 C   0  0  1  0  0  0
   -2.8781    0.3457    0.0000 C   0  0
   -2.6500    2.2500    0.0000 C   0  0  2  0  0  0
   -4.1488    2.2849    0.0000 O   0  0
   -4.7737    1.2605    0.0000 C   0  0
   -0.9800   -0.7800    0.0000 N   0  0
   -2.1300   -1.4600    0.0000 C   0  0
   -3.3200   -0.7600    0.0000 C   0  0
   -4.5500   -1.4800    0.0000 C   0  0
   -4.5800   -2.7700    0.0000 C   0  0
   -3.3400   -3.4700    0.0000 C   0  0
   -2.1300   -2.7900    0.0000 C   0  0
    0.2400   -2.7700    0.0000 C   0  0
    1.4300   -3.4700    0.0000 C   0  0
    1.7600   -4.9700    0.0000 C   0  0
    3.2600   -5.0800    0.0000 N   0  0
    3.8500   -3.6300    0.0000 C   0  0
    5.0053   -3.3055    0.0000 O   0  0
    2.6600   -2.7500    0.0000 C   0  0
    2.6800   -1.4600    0.0000 C   0  0
    3.7900    0.5600    0.0000 C   0  0
    4.9600    1.2800    0.0000 C   0  0
    4.9600    2.6300    0.0000 C   0  0
    3.8100    3.2900    0.0000 C   0  0
    2.6400    2.5900    0.0000 C   0  0
    2.6400    1.2400    0.0000 C   0  0
    1.4900    0.5400    0.0000 N   0  0
    1.4500   -0.7600    0.0000 C   0  0
    0.2400   -1.4400    0.0000 C   0  0
  1  2  1  0
  3  2  1  6
  3  4  1  0
  5  4  1  6
  5  6  1  0
  6  7  1  0
  7  8  1  1
  7  9  1  0
  9  3  1  0
  9 10  1  6
 10 11  1  0
  7 12  1  0
 12 13  1  0
 13 14  2  0
 14 15  1  0
 15 16  2  0
 16 17  1  0
 17 18  2  0
 18 13  1  0
 18 19  1  0
 19 20  2  0
 20 21  1  0
 21 22  1  0
 22 23  1  0
 23 24  2  0
 23 25  1  0
 25 20  1  0
 25 26  2  0
 26 27  1  0
 27 28  2  0
 28 29  1  0
 29 30  2  0
 30 31  1  0
 31 32  2  0
 32 27  1  0
 32 33  1  0
 33  5  1  0
 33 34  1  0
 34 26  1  0
 34 35  2  0
 35 12  1  0
 35 19  1  0
M  END
> <chembl_id>
CHEMBL388978

$$$$

  SciTegic12091614152D

 33 35  0  0  0  0            999 V2000
    1.2990   -0.7500    0.0000 C   0  0
    1.2990    0.7500    0.0000 C   0  0
    0.0000    1.5000    0.0000 C   0  0
   -1.2990    0.7500    0.0000 C   0  0
   -1.2990   -0.7500    0.0000 C   0  0
    0.0000   -1.5000    0.0000 C   0  0
    2.5973   -1.5031    0.0000 N   0  0
   -0.0031    3.0008    0.0000 N   0  0
    1.2883   -5.2495    0.0000 C   0  0
    1.2935   -3.7495    0.0000 N   0  0
    2.5951   -3.0039    0.0000 C   0  0
    3.8915   -3.7585    0.0000 C   0  0
    3.8864   -5.2585    0.0000 C   0  0
    2.5847   -6.0040    0.0000 N   0  0
   -0.0125   -5.9981    0.0000 N   0  0
   -0.0155   -7.4989    0.0000 N   0  0
   -1.3163   -8.2475    0.0000 C   0  0
   -1.3194   -9.7484    0.0000 C   0  0
    4.9329   -3.1621    0.0000 Cl  0  0
   -1.3039    3.7494    0.0000 C   0  0
   -2.3421    3.1476    0.0000 O   0  0
   -1.3070    5.2502    0.0000 C   0  0
   -2.6078    5.9988    0.0000 C   0  0
   -2.6109    7.4996    0.0000 C   0  0
   -3.9118    8.2481    0.0000 N   0  0
   -3.9142    9.4481    0.0000 C   0  0
   -4.9499    7.6463    0.0000 C   0  0
   -2.6184  -10.4985    0.0000 C   0  0
   -2.6184  -11.9985    0.0000 N   0  0
   -1.3193  -12.7484    0.0000 C   0  0
   -0.0203  -11.9984    0.0000 C   0  0
   -0.0203  -10.4984    0.0000 C   0  0
   -2.3545   -7.6458    0.0000 C   0  0
  1  2  1  0
  2  3  2  0
  3  4  1  0
  4  5  2  0
  5  6  1  0
  1  6  2  0
  1  7  1  0
  3  8  1  0
  9 10  1  0
 10 11  2  0
 11 12  1  0
 12 13  2  0
 13 14  1  0
  9 14  2  0
 15 16  1  0
 17 18  1  0
 16 17  2  0
  9 15  1  0
 12 19  1  0
  7 11  1  0
  8 20  1  0
 20 21  2  0
 20 22  1  0
 22 23  2  0
 23 24  1  0
 24 25  1  0
 25 26  1  0
 25 27  1  0
 18 28  2  0
 28 29  1  0
 29 30  2  0
 30 31  1  0
 31 32  2  0
 32 18  1  0
 17 33  1  0
M  END
> <chembl_id>
CHEMBL3742146

$$$$

  SciTegic02271217242D

 25 28  0  0  0  0            999 V2000
   -3.1003  -17.8485    0.0000 N   0  0
   -2.3838  -17.4352    0.0000 C   0  0
   -2.3867  -16.6047    0.0000 N   0  0
   -3.1021  -16.1955    0.0000 C   0  0
   -3.8151  -17.4357    0.0000 C   0  0
   -3.8138  -16.6068    0.0000 C   0  0
   -4.6018  -16.3494    0.0000 N   0  0
   -5.0901  -17.0193    0.0000 C   0  0
   -4.6038  -17.6906    0.0000 C   0  0
   -3.1039  -15.3705    0.0000 N   0  0
   -2.3903  -14.9565    0.0000 C   0  0
   -1.6781  -15.3704    0.0000 C   0  0
   -0.9650  -14.9570    0.0000 C   0  0
   -0.9663  -14.1311    0.0000 C   0  0
   -1.6867  -13.7203    0.0000 C   0  0
   -2.3969  -14.1361    0.0000 C   0  0
   -0.2498  -15.3682    0.0000 Cl  0  0
   -0.2533  -13.7161    0.0000 O   0  0
    0.4626  -14.1261    0.0000 C   0  0
    0.4626  -14.9511    0.0000 C   0  0
    1.1777  -15.3610    0.0000 C   0  0
    1.8917  -14.9459    0.0000 C   0  0
    1.8861  -14.1167    0.0000 C   0  0
    1.1705  -13.7105    0.0000 C   0  0
    2.5977  -13.6991    0.0000 C   0  0
 11 12  2  0
  5  1  1  0
 12 13  1  0
  2  3  1  0
 13 14  2  0
 14 15  1  0
  3  4  2  0
 15 16  2  0
 16 11  1  0
  6  7  1  0
 13 17  1  0
  7  8  1  0
 14 18  1  0
  8  9  2  0
 18 19  1  0
  9  5  1  0
 19 20  2  0
  4  6  1  0
 20 21  1  0
  4 10  1  0
 21 22  2  0
  5  6  2  0
 22 23  1  0
 10 11  1  0
 23 24  2  0
 24 19  1  0
  1  2  2  0
 23 25  1  0
M  END
> <chembl_id>
CHEMBL1922999

$$$$

  SciTegic06051313552D

 25 28  0  0  0  0            999 V2000
    1.8930  -20.6444    0.0000 C   0  0
    1.8918  -21.4639    0.0000 C   0  0
    2.5999  -21.8729    0.0000 C   0  0
    3.3095  -21.4634    0.0000 C   0  0
    3.3067  -20.6407    0.0000 C   0  0
    2.5981  -20.2355    0.0000 C   0  0
    3.9874  -20.1886    0.0000 C   0  0
    4.7547  -20.4698    0.0000 C   0  0
    5.2592  -19.8269    0.0000 C   0  0
    4.8033  -19.1490    0.0000 N   0  0
    4.0177  -19.3720    0.0000 N   0  0
    5.2089  -18.4395    0.0000 C   0  0
    6.0260  -18.4360    0.0000 N   0  0
    4.7972  -17.7336    0.0000 S   0  0
    6.0737  -19.8571    0.0000 C   0  0
    6.4554  -20.5809    0.0000 C   0  0
    7.3197  -19.1938    0.0000 C   0  0
    6.5051  -19.1670    0.0000 C   0  0
    7.7064  -19.9185    0.0000 C   0  0
    7.2708  -20.6090    0.0000 C   0  0
    7.6509  -21.3293    0.0000 C   0  0
    8.4665  -21.3605    0.0000 C   0  0
    8.9004  -20.6652    0.0000 C   0  0
    8.5178  -19.9477    0.0000 C   0  0
    1.1838  -21.8719    0.0000 C   0  0
  1  2  2  0
  2  3  1  0
  3  4  2  0
  4  5  1  0
  5  6  2  0
  6  1  1  0
  7  8  1  0
  8  9  1  0
  9 10  1  0
 10 11  1  0
 11  7  2  0
  5  7  1  0
 10 12  1  0
 12 13  1  0
 12 14  2  0
 15 16  2  0
 16 20  1  0
 19 17  1  0
 17 18  2  0
 18 15  1  0
  9 15  1  0
 19 20  1  0
 20 21  2  0
 21 22  1  0
 22 23  2  0
 23 24  1  0
 24 19  2  0
  2 25  1  0
M  END
> <chembl_id>
CHEMBL2324873

$$$$

  SciTegic08011209522D

 48 54  0  0  0  0            999 V2000
   22.5486    2.1000    0.0000 N   0  0
   22.5474    1.2727    0.0000 C   0  0
   23.2622    0.8598    0.0000 N   0  0
   23.2604    2.5128    0.0000 C   0  0
   23.9758    2.1037    0.0000 C   0  0
   23.9792    1.2706    0.0000 C   0  0
   24.6984    0.8593    0.0000 N   0  0
   25.4188    1.2765    0.0000 C   0  0
   25.4154    2.1096    0.0000 N   0  0
   24.6916    2.5255    0.0000 C   0  0
   24.7024    0.0377    0.0000 C   0  0
   23.9874   -0.3761    0.0000 C   0  0
   23.9893   -1.2003    0.0000 C   0  0
   24.7054   -1.6117    0.0000 C   0  0
   25.4211   -1.1928    0.0000 C   0  0
   25.4157   -0.3700    0.0000 C   0  0
   21.8326    0.8607    0.0000 N   0  0
   21.8320    0.0357    0.0000 C   0  0
   21.1171   -0.3746    0.0000 C   0  0
   21.1161   -1.1989    0.0000 C   0  0
   21.8307   -1.6128    0.0000 C   0  0
   22.5479   -1.1964    0.0000 C   0  0
   22.5454   -0.3735    0.0000 C   0  0
   26.1344    0.8659    0.0000 O   0  0
   26.1382   -1.6009    0.0000 N   0  0
   26.1433   -2.4258    0.0000 C   0  0
   26.8604   -2.8339    0.0000 C   0  0
   25.4315   -2.8428    0.0000 O   0  0
   26.8655   -3.6589    0.0000 C   0  0
   21.8312   -2.4378    0.0000 N   0  0
   26.1286    2.5243    0.0000 C   0  0
   21.1143   -2.8474    0.0000 C   0  0
   21.1127   -3.6688    0.0000 C   0  0
   21.8256   -4.0847    0.0000 N   0  0
   22.5417   -3.6731    0.0000 C   0  0
   22.5449   -2.8455    0.0000 C   0  0
   21.8229   -4.9097    0.0000 C   0  0
   20.4034    0.0392    0.0000 O   0  0
   20.4049    0.8642    0.0000 C   0  0
   26.8472    2.1099    0.0000 C   0  0
   26.8370    3.7599    0.0000 C   0  0
   26.1272    3.3435    0.0000 C   0  0
   27.5577    3.3498    0.0000 C   0  0
   27.5557    2.5227    0.0000 C   0  0
   28.2699    2.1092    0.0000 C   0  0
   28.9865    2.5217    0.0000 C   0  0
   28.9845    3.3519    0.0000 C   0  0
   28.2698    3.7617    0.0000 C   0  0
 22 23  2  0
 23 18  1  0
  8 24  2  0
 11 12  2  0
 15 25  1  0
  2  3  1  0
 25 26  1  0
 12 13  1  0
 26 27  1  0
  3  6  2  0
 26 28  2  0
 13 14  2  0
 27 29  2  0
  1  2  2  0
 21 30  1  0
 14 15  1  0
  9 31  1  0
 30 32  1  0
  5  4  2  0
 15 16  2  0
 16 11  1  0
  7 11  1  0
  4  1  1  0
 30 36  1  0
 32 33  1  0
 33 34  1  0
 34 35  1  0
 35 36  1  0
  2 17  1  0
 34 37  1  0
  5 10  1  0
 19 38  1  0
 17 18  1  0
 38 39  1  0
  6  7  1  0
 31 40  2  0
 40 44  1  0
 18 19  2  0
 43 41  1  0
  7  8  1  0
 41 42  2  0
 42 31  1  0
 19 20  1  0
  8  9  1  0
 43 44  1  0
 20 21  2  0
 44 45  2  0
  9 10  1  0
 45 46  1  0
 21 22  1  0
 46 47  2  0
  5  6  1  0
 47 48  1  0
 48 43  2  0
M  END
> <chembl_id>
CHEMBL2029437

$$$$

  SciTegic12171313022D

 36 39  0  0  0  0            999 V2000
   10.4733   -9.0732    0.0000 C   0  0
   11.1922   -8.6536    0.0000 C   0  0
   11.9129   -9.0662    0.0000 N   0  0
   11.9159   -9.8985    0.0000 C   0  0
   11.1923  -10.3162    0.0000 N   0  0
   10.4745   -9.9011    0.0000 C   0  0
    9.7561  -10.3168    0.0000 C   0  0
    9.6697  -11.1423    0.0000 C   0  0
    8.8578  -11.3151    0.0000 N   0  0
    8.9977   -9.9795    0.0000 C   0  0
    8.4447  -10.5985    0.0000 N   0  0
    7.6342  -10.4284    0.0000 C   0  0
    7.3756   -9.6400    0.0000 C   0  0
    7.9338   -9.0213    0.0000 C   0  0
    8.7422   -9.1946    0.0000 C   0  0
   12.6355  -10.3122    0.0000 N   0  0
   12.6370  -11.1422    0.0000 C   0  0
   13.3552  -11.5528    0.0000 C   0  0
   13.3570  -12.3820    0.0000 C   0  0
   11.9182  -11.5531    0.0000 C   0  0
   14.0727  -11.1354    0.0000 O   0  0
   14.0700  -10.3055    0.0000 C   0  0
   11.9138  -12.3780    0.0000 C   0  0
   12.6372  -12.7953    0.0000 C   0  0
   11.1940  -12.7912    0.0000 N   0  0
   11.1918  -13.6212    0.0000 C   0  0
   10.4720  -14.0345    0.0000 C   0  0
   11.9097  -14.0380    0.0000 O   0  0
   10.4699  -14.8645    0.0000 C   0  0
    9.7500  -15.2777    0.0000 C   0  0
    9.7480  -16.1077    0.0000 N   0  0
    9.0313  -16.5190    0.0000 C   0  0
   10.4657  -16.5245    0.0000 C   0  0
    9.7531   -8.6604    0.0000 S   0  3
    9.0356   -9.0777    0.0000 C   0  0
    9.7506   -7.8304    0.0000 O   0  5
  1  2  2  0
  2  3  1  0
  3  4  2  0
  4  5  1  0
  5  6  2  0
  6  1  1  0
  7  8  1  0
  8  9  2  0
  9 11  1  0
 10  7  2  0
  6  7  1  0
 10 11  1  0
 11 12  1  0
 12 13  2  0
 13 14  1  0
 14 15  2  0
 15 10  1  0
  4 16  1  0
 16 17  1  0
 17 18  2  0
 18 19  1  0
 19 24  2  0
 23 20  2  0
 20 17  1  0
 18 21  1  0
 21 22  1  0
 23 24  1  0
 23 25  1  0
 25 26  1  0
 26 27  1  0
 26 28  2  0
 27 29  2  0
 29 30  1  0
 30 31  1  0
 31 32  1  0
 31 33  1  0
  1 34  1  0
 34 35  1  0
 34 36  1  0
M  CHG  2  34   1  36  -1
M  END
> <chembl_id>
CHEMBL2426378

$$$$

  CDK    9/16/09,10:5

 28 31  0  0  0  0  0  0  0  0999 V2000
   10.1882   -0.1283    0.0000 C   0  0  0  0  0  0  0  0  0  0  0  0
   10.1869   -0.9560    0.0000 C   0  0  0  0  0  0  0  0  0  0  0  0
   10.8999   -1.3690    0.0000 C   0  0  0  0  0  0  0  0  0  0  0  0
   10.8980    0.2845    0.0000 C   0  0  0  0  0  0  0  0  0  0  0  0
   11.6161   -0.1243    0.0000 C   0  0  0  0  0  0  0  0  0  0  0  0
   11.6167   -0.9560    0.0000 C   0  0  0  0  0  0  0  0  0  0  0  0
   12.4079   -1.2125    0.0000 N   0  0  0  0  0  0  0  0  0  0  0  0
   12.8963   -0.5393    0.0000 C   0  0  0  0  0  0  0  0  0  0  0  0
   12.4070    0.1331    0.0000 C   0  0  0  0  0  0  0  0  0  0  0  0
   13.7192   -0.5363    0.0000 C   0  0  0  0  0  0  0  0  0  0  0  0
   12.6614    0.9180    0.0000 N   0  0  0  0  0  0  0  0  0  0  0  0
   14.2080   -1.2040    0.0000 C   0  0  0  0  0  0  0  0  0  0  0  0
   14.9897   -0.9467    0.0000 N   0  0  0  0  0  0  0  0  0  0  0  0
   13.9559   -1.9895    0.0000 O   0  0  0  0  0  0  0  0  0  0  0  0
   14.2031    0.1275    0.0000 C   0  0  0  0  0  0  0  0  0  0  0  0
   14.9847   -0.1238    0.0000 C   0  0  0  0  0  0  0  0  0  0  0  0
   15.5911    0.4270    0.0000 C   0  0  0  0  0  0  0  0  0  0  0  0
   15.4171    1.2291    0.0000 C   0  0  0  0  0  0  0  0  0  0  0  0
   14.6313    1.4776    0.0000 C   0  0  0  0  0  0  0  0  0  0  0  0
   14.0282    0.9251    0.0000 C   0  0  0  0  0  0  0  0  0  0  0  0
   12.1090    1.5308    0.0000 O   0  0  0  0  0  0  0  0  0  0  0  0
   14.4531    2.2832    0.0000 N   0  0  0  0  0  0  0  0  0  0  0  0
   15.0615    2.8402    0.0000 C   0  0  0  0  0  0  0  0  0  0  0  0
   14.8833    3.6459    0.0000 O   0  0  0  0  0  0  0  0  0  0  0  0
   15.8483    2.5918    0.0000 C   0  0  0  0  0  0  0  0  0  0  0  0
   16.6391    2.3836    0.0000 C   0  0  0  0  0  0  0  0  0  0  0  0
   15.6190    1.7992    0.0000 C   0  0  0  0  0  0  0  0  0  0  0  0
   16.0852    3.3822    0.0000 C   0  0  0  0  0  0  0  0  0  0  0  0
 13 16  1  0  0  0  0 
 15 10  1  0  0  0  0 
  3  6  2  0  0  0  0 
 12 14  2  0  0  0  0 
  1  2  2  0  0  0  0 
  5  4  2  0  0  0  0 
 15 16  2  0  0  0  0 
  6  7  1  0  0  0  0 
 16 17  1  0  0  0  0 
  7  8  1  0  0  0  0 
 17 18  2  0  0  0  0 
  8  9  1  0  0  0  0 
 18 19  1  0  0  0  0 
  9  5  1  0  0  0  0 
 19 20  2  0  0  0  0 
 20 15  1  0  0  0  0 
  4  1  1  0  0  0  0 
 11 21  1  0  0  0  0 
  8 10  2  0  0  0  0 
 19 22  1  0  0  0  0 
  5  6  1  0  0  0  0 
 22 23  1  0  0  0  0 
  9 11  2  0  0  0  0 
 23 24  2  0  0  0  0 
 10 12  1  0  0  0  0 
 23 25  1  0  0  0  0 
 25 26  1  0  0  0  0 
  2  3  1  0  0  0  0 
 25 27  1  0  0  0  0 
 12 13  1  0  0  0  0 
 25 28  1  0  0  0  0 
M  END
> <chembl_id>
CHEMBL513703

$$$$

  SciTegic12131615502D

 42 47  0  0  0  0            999 V2000
    3.7345    1.5436    0.0000 C   0  0
    4.8300    2.8133    0.0000 C   0  0
    3.7345    0.0000    0.0000 C   0  0
    6.1246    2.2656    0.0000 C   0  0
    5.2034   -0.5726    0.0000 C   0  0
    6.1246    0.5726    0.0000 C   0  0
    2.5893   -0.5726    0.0000 C   0  0
    3.5602    0.5726    0.0000 C   0  0
    3.5602    2.2656    0.0000 C   0  0
    5.0291    0.0249    0.0000 C   0  0
    2.1833    1.1556    0.0000 C   0  0
   -1.5951   -0.0674    0.0000 C   0  0
   -2.9758    0.5191    0.0000 C   0  0
   -3.1582    2.0079    0.0000 C   0  0
   -1.9600    2.9103    0.0000 C   0  0
   -0.5794    2.3239    0.0000 C   0  0
   -0.3969    0.8350    0.0000 C   0  0
   -4.5383    2.5976    0.0000 N   0  0
   -5.0883    7.0595    0.0000 N   0  0
   -3.6914    6.4784    0.0000 C   0  0
   -3.5071    4.9925    0.0000 N   0  0
   -4.7187    4.0875    0.0000 C   0  0
   -6.0984    4.6711    0.0000 C   0  0
   -7.2928    3.7685    0.0000 C   0  0
   -8.6715    4.3519    0.0000 C   0  0
   -8.8558    5.8377    0.0000 C   0  0
   -7.6614    6.7403    0.0000 C   0  0
   -6.2827    6.1569    0.0000 C   0  0
   -9.8671    3.4447    0.0000 O   0  0
   -9.6803    1.9555    0.0000 C   0  0
  -10.8759    1.0483    0.0000 C   0  0
  -10.2369    6.4253    0.0000 O   0  0
  -10.4196    7.9150    0.0000 C   0  0
    0.9857    0.2510    0.0000 N   0  0
  -10.6890   -0.4408    0.0000 O   0  0
  -11.6450   -1.1662    0.0000 C   0  0
  -11.8006    8.5025    0.0000 C   0  0
  -11.9832    9.9922    0.0000 O   0  0
  -13.0875   10.4619    0.0000 C   0  0
   -1.4157   -1.5575    0.0000 O   0  0
   -2.3753   -2.2780    0.0000 C   0  0
    2.0353    2.3464    0.0000 O   0  0
  1  2  1  0
  1  3  1  0
  2  4  1  0
  3  5  1  0
  4  6  1  0
  5  6  1  0
  7  8  1  0
  3  7  1  0
  2  9  1  0
  6 10  1  0
 10  8  1  0
  8  9  1  0
 11  8  1  0
 12 13  1  0
 13 14  2  0
 14 15  1  0
 15 16  2  0
 16 17  1  0
 12 17  2  0
 19 20  1  0
 20 21  2  0
 21 22  1  0
 22 23  2  0
 23 24  1  0
 24 25  2  0
 25 26  1  0
 26 27  2  0
 27 28  1  0
 19 28  2  0
 23 28  1  0
 30 31  1  0
 29 30  1  0
 25 29  1  0
 32 33  1  0
 26 32  1  0
 18 22  1  0
 14 18  1  0
 17 34  1  0
 34 11  1  0
 31 35  1  0
 35 36  1  0
 33 37  1  0
 37 38  1  0
 38 39  1  0
 40 41  1  0
 12 40  1  0
 11 42  2  0
M  END
> <chembl_id>
CHEMBL3763757

$$$$

  SciTegic12161615052D

 26 28  0  0  0  0            999 V2000
    1.2990   -0.7500    0.0000 C   0  0
    1.2990    0.7500    0.0000 C   0  0
    0.0000    1.5000    0.0000 C   0  0
   -1.2990    0.7500    0.0000 C   0  0
   -1.2990   -0.7500    0.0000 C   0  0
    0.0000   -1.5000    0.0000 N   0  0
    2.5972    1.5031    0.0000 C   0  0
    3.6375    0.9049    0.0000 O   0  0
    2.5951    3.0039    0.0000 N   0  0
    2.3383   -1.3500    0.0000 O   0  0
    3.8933    3.7570    0.0000 C   0  0
    3.8933    5.2571    0.0000 C   0  0
    5.1924    6.0071    0.0000 C   0  0
    6.4914    5.2571    0.0000 C   0  0
    6.4915    3.7571    0.0000 C   0  0
    5.1925    3.0071    0.0000 C   0  0
   -0.0031    3.0008    0.0000 N   0  0
   -1.3039    3.7494    0.0000 C   0  0
   -1.3070    5.2502    0.0000 C   0  0
   -2.6078    5.9988    0.0000 C   0  0
   -2.6131    7.4988    0.0000 C   0  0
   -3.9148    8.2443    0.0000 C   0  0
   -5.2112    7.4898    0.0000 C   0  0
   -5.2060    5.9898    0.0000 C   0  0
   -3.9044    5.2443    0.0000 C   0  0
   -6.2431    5.3862    0.0000 Cl  0  0
  1  2  1  0
  2  3  2  0
  3  4  1  0
  4  5  2  0
  5  6  1  0
  1  6  1  0
  7  8  2  0
  7  9  1  0
  2  7  1  0
  1 10  2  0
  9 11  1  0
 11 12  2  0
 12 13  1  0
 13 14  2  0
 14 15  1  0
 15 16  2  0
 16 11  1  0
  3 17  1  0
 17 18  1  0
 18 19  1  0
 19 20  1  0
 20 21  2  0
 21 22  1  0
 22 23  2  0
 23 24  1  0
 24 25  2  0
 25 20  1  0
 24 26  1  0
M  END
> <chembl_id>
CHEMBL3780006

$$$$

  SciTegic12201611512D

 30 33  0  0  0  0            999 V2000
   -7.3414    2.1476    0.0000 C   0  0
   -6.0489    2.9104    0.0000 C   0  0
   -6.0632    4.4104    0.0000 C   0  0
   -4.7714    5.1728    0.0000 C   0  0
   -3.4653    4.4352    0.0000 C   0  0
   -3.4508    2.9353    0.0000 C   0  0
   -4.7427    2.1729    0.0000 C   0  0
   -8.3748    1.5377    0.0000 N   0  0
   -7.1082    5.0004    0.0000 C   0  0
   -2.1454    2.1947    0.0000 N   0  0
   -2.1332   -2.2973    0.0000 N   0  0
   -3.4277   -1.5498    0.0000 C   0  0
   -3.4277    0.0000    0.0000 N   0  0
   -2.1332    0.6928    0.0000 C   0  0
   -0.8205    0.0000    0.0000 C   0  0
    0.4558    0.6928    0.0000 C   0  0
    1.7503    0.0000    0.0000 C   0  0
    1.7503   -1.5498    0.0000 C   0  0
    0.4558   -2.2973    0.0000 C   0  0
   -0.8205   -1.5498    0.0000 C   0  0
    0.4558    2.1879    0.0000 O   0  0
    3.0631    0.6928    0.0000 O   0  0
    3.0631    2.1879    0.0000 C   0  0
    1.7503    2.9537    0.0000 C   0  0
    3.0410   -2.3153    0.0000 O   0  0
    3.0239   -3.8160    0.0000 C   0  0
    1.9778   -4.4039    0.0000 C   0  0
    4.3146   -4.5820    0.0000 O   0  0
    4.2976   -6.0827    0.0000 C   0  0
    5.3296   -6.6951    0.0000 C   0  0
  1  2  1  0
  2  3  1  0
  3  4  2  0
  4  5  1  0
  5  6  2  0
  6  7  1  0
  2  7  2  0
  1  8  3  0
  3  9  1  0
 11 12  1  0
 12 13  2  0
 13 14  1  0
 14 15  2  0
 15 16  1  0
 16 17  2  0
 17 18  1  0
 18 19  2  0
 19 20  1  0
 11 20  2  0
 15 20  1  0
 22 23  1  0
 23 24  1  0
 21 24  1  0
 16 21  1  0
 17 22  1  0
 26 27  1  0
 25 26  1  0
 29 30  1  0
 28 29  1  0
 26 28  1  0
 18 25  1  0
 10 14  1  0
  6 10  1  0
M  END
> <chembl_id>
CHEMBL3805618

$$$$

  SciTegic12201615542D

 39 44  0  0  0  0            999 V2000
    1.4499    7.7742    0.0000 C   0  0
    0.5265    8.9573    0.0000 C   0  0
    0.9759   10.0700    0.0000 C   0  0
    2.6383    7.9411    0.0000 O   0  0
    0.8879    6.3826    0.0000 N   0  0
    1.8114    5.1995    0.0000 C   0  0
    1.2517    3.8078    0.0000 C   0  0
    2.1749    2.6315    0.0000 C   0  0
    3.6621    2.8384    0.0000 C   0  0
    4.2218    4.2301    0.0000 C   0  0
    3.2965    5.4106    0.0000 C   0  0
   -1.0028   -1.5132    0.0000 C   0  0
    0.2917   -0.7475    0.0000 C   0  0
    0.2917    0.7475    0.0000 C   0  0
   -1.0028    1.5132    0.0000 C   0  0
   -2.3155    0.7475    0.0000 C   0  0
   -2.3155   -0.7475    0.0000 N   0  0
    2.5889    0.0182    0.0000 C   0  0
    1.7138   -1.2033    0.0000 N   0  0
    1.7138    1.2033    0.0000 N   0  0
    4.0896    0.0290    0.0000 C   0  0
    4.9234    1.2700    0.0000 C   0  0
    4.7453   -1.3220    0.0000 N   0  0
    6.4199    1.1671    0.0000 N   0  0
    7.0791   -0.1803    0.0000 C   0  0
    6.2418   -1.4248    0.0000 C   0  0
    7.2286   -5.1568    0.0000 N   0  0
    8.5770   -4.4998    0.0000 N   0  0
    8.3688   -3.0143    0.0000 C   0  0
    6.9013   -2.7729    0.0000 C   0  0
    6.1870   -4.0774    0.0000 C   0  0
    6.2216   -9.5371    0.0000 N   0  0
    7.6659   -9.1322    0.0000 C   0  0
    8.0374   -7.6789    0.0000 C   0  0
    6.9674   -6.6347    0.0000 C   0  0
    5.5202   -7.0355    0.0000 C   0  0
    5.1488   -8.4888    0.0000 C   0  0
    5.9245  -10.6998    0.0000 C   0  0
    4.3957    2.3477    0.0000 N   0  0
  1  2  1  0
  2  3  2  0
  1  4  2  0
  1  5  1  0
  6  7  1  0
  7  8  2  0
  8  9  1  0
  9 10  2  0
 10 11  1  0
  6 11  2  0
 12 13  1  0
 13 14  2  0
 14 15  1  0
 15 16  2  0
 16 17  1  0
 12 17  2  0
 18 19  2  0
 18 20  1  0
 13 19  1  0
 14 20  1  0
 21 22  1  0
 21 23  2  0
 22 24  2  0
 24 25  1  0
 25 26  2  0
 23 26  1  0
 27 28  1  0
 28 29  2  0
 29 30  1  0
 30 31  2  0
 27 31  1  0
 32 33  1  0
 33 34  1  0
 34 35  1  0
 35 36  1  0
 36 37  1  0
 32 37  1  0
 32 38  1  0
 27 35  1  0
 26 30  1  0
 22 39  1  0
 18 21  1  0
  8 20  1  0
  5  6  1  0
M  END
> <chembl_id>
CHEMBL3814714

$$$$

  SciTegic01181116592D

 28 31  0  0  0  0            999 V2000
   -0.3922  -27.6301    0.0000 N   0  0
    0.3248  -27.2164    0.0000 C   0  0
    0.3219  -26.3852    0.0000 N   0  0
   -0.3940  -25.9757    0.0000 C   0  0
   -0.3965  -25.1500    0.0000 N   0  0
   -1.1077  -27.2169    0.0000 C   0  0
   -1.1110  -26.3919    0.0000 C   0  0
   -1.8913  -27.4749    0.0000 S   0  0
   -2.3790  -26.8095    0.0000 C   0  0
   -1.8969  -26.1418    0.0000 C   0  0
   -2.2323  -25.3946    0.0000 C   0  0
   -3.0508  -25.3089    0.0000 C   0  0
   -3.5328  -25.9761    0.0000 N   0  0
   -3.1964  -26.7301    0.0000 C   0  0
    0.3173  -24.7350    0.0000 C   0  0  1  0  0  0
    1.0336  -25.1457    0.0000 C   0  0
    0.3149  -23.9093    0.0000 C   0  0
    1.0339  -25.9687    0.0000 C   0  0
    1.7494  -26.3794    0.0000 C   0  0
    2.4642  -25.9643    0.0000 C   0  0
    2.4591  -25.1344    0.0000 C   0  0
    1.7430  -24.7275    0.0000 C   0  0
    1.0287  -23.4943    0.0000 O   0  0
   -4.3583  -25.9942    0.0000 C   0  0
   -4.7867  -25.2885    0.0000 O   0  0
   -4.7552  -26.7183    0.0000 C   0  0
   -5.1522  -27.4423    0.0000 C   0  0
   -5.5493  -28.1662    0.0000 C   0  0
 11 12  1  0
 12 13  1  0
 13 14  1  0
  2  3  1  0
  5 15  1  0
 15 16  1  0
  7 10  1  0
 15 17  1  6
  9  8  1  0
 16 18  2  0
  8  6  1  0
 18 19  1  0
  9 10  2  0
 19 20  2  0
  3  4  2  0
 20 21  1  0
  4  7  1  0
 21 22  2  0
 22 16  1  0
  1  2  2  0
 17 23  1  0
  4  5  1  0
 13 24  1  0
  6  7  2  0
 24 25  2  0
  6  1  1  0
 24 26  1  0
  9 14  1  0
 26 27  3  0
 10 11  1  0
 27 28  1  0
M  END
> <chembl_id>
CHEMBL1272113

$$$$

  SciTegic12231509382D

 34 37  0  0  0  0            999 V2000
   -4.7017   -0.8352    0.0000 C   0  0
   -5.0418   -1.5869    0.0000 C   0  0
   -4.5609   -2.2572    0.0000 C   0  0
   -5.1826   -0.1649    0.0000 O   0  0
   -3.8807   -0.7540    0.0000 N   0  0
   -3.3999   -1.4243    0.0000 C   0  0
   -1.3561   -0.8074    0.0000 O   0  0
   -1.2749   -1.6284    0.0000 C   0  0
   -2.0305   -1.9594    0.0000 N   0  0
   -2.5789   -1.3430    0.0000 C   0  0
   -2.1621   -0.6311    0.0000 C   0  0
    0.8611   -2.8788    0.0000 C   0  0
    0.1441   -3.2870    0.0000 N   0  0
   -0.5679   -2.8702    0.0000 C   0  0
   -0.5629   -2.0452    0.0000 C   0  0
    0.1541   -1.6370    0.0000 C   0  0
    0.8660   -2.0538    0.0000 N   0  0
    0.1590   -0.8121    0.0000 N   0  0
    0.8760   -0.4039    0.0000 C   0  0
    0.8809    0.4211    0.0000 C   0  0
    1.5979    0.8293    0.0000 C   0  0
    2.3099    0.4125    0.0000 C   0  0
    2.3049   -0.4125    0.0000 C   0  0
    1.5879   -0.8207    0.0000 C   0  0
    3.0268    0.8207    0.0000 O   0  0
    3.0318    1.6457    0.0000 C   0  0
    3.7487    2.0538    0.0000 C   0  0
    3.7537    2.8788    0.0000 C   0  0
    4.4707    3.2870    0.0000 C   0  0
    5.1826    2.8702    0.0000 C   0  0
    5.1776    2.0452    0.0000 C   0  0
    4.4607    1.6370    0.0000 N   0  0
    1.6029    1.6543    0.0000 Cl  0  0
   -1.2848   -3.2784    0.0000 N   0  0
  1  2  1  0
  2  3  2  0
  1  4  2  0
  1  5  1  0
  7  8  1  0
  8  9  2  0
  9 10  1  0
 10 11  2  0
  7 11  1  0
 12 13  1  0
 13 14  2  0
 14 15  1  0
 15 16  2  0
 16 17  1  0
 12 17  2  0
 19 20  1  0
 20 21  2  0
 21 22  1  0
 22 23  2  0
 23 24  1  0
 19 24  2  0
 25 26  1  0
 27 28  1  0
 28 29  2  0
 29 30  1  0
 30 31  2  0
 31 32  1  0
 27 32  2  0
 26 27  1  0
 22 25  1  0
 21 33  1  0
 18 19  1  0
 16 18  1  0
 14 34  1  0
  8 15  1  0
  6 10  1  0
  5  6  1  0
M  END
> <chembl_id>
CHEMBL2035810

$$$$

  SciTegic04091414352D

 33 37  0  0  0  0            999 V2000
   15.5945   -7.7456    0.0000 N   0  0
   15.8148   -6.9581    0.0000 C   0  0
   16.6022   -7.1784    0.0000 C   0  0
   16.3820   -7.9658    0.0000 C   0  0
   14.8820   -8.1466    0.0000 C   0  0
   14.8730   -8.9643    0.0000 O   0  0
   14.1784   -7.7301    0.0000 N   0  0
   17.3126   -6.7785    0.0000 O   0  0
   11.3282   -9.3343    0.0000 N   0  0
   10.6246   -8.9178    0.0000 C   0  0
   10.6335   -8.1002    0.0000 N   0  0
   11.3461   -7.6991    0.0000 C   0  0
   12.0497   -8.1157    0.0000 C   0  0
   12.7622   -7.7146    0.0000 C   0  0
   13.4658   -8.1311    0.0000 C   0  0
   13.4569   -8.9488    0.0000 C   0  0
   12.7443   -9.3498    0.0000 C   0  0
   12.0407   -8.9333    0.0000 C   0  0
   14.1605   -9.3653    0.0000 O   0  0
   13.7290  -11.4367    0.0000 O   0  0
   13.4848  -10.6563    0.0000 C   0  0
   14.1515  -10.1829    0.0000 C   0  0  2  0  0  0
   14.8077  -10.6708    0.0000 C   0  0
   14.5466  -11.4456    0.0000 C   0  0
   11.3550   -6.8815    0.0000 N   0  0
   10.6514   -6.4649    0.0000 C   0  0
    9.9388   -6.8660    0.0000 C   0  0
    9.2352   -6.4494    0.0000 C   0  0
    9.2442   -5.6318    0.0000 C   0  0
    9.9567   -5.2308    0.0000 C   0  0
   10.6603   -5.6473    0.0000 C   0  0
    8.5406   -5.2153    0.0000 F   0  0
    8.5227   -6.8505    0.0000 Cl  0  0
  1  2  1  0
  2  3  1  0
  3  4  1  0
  1  4  1  0
  5  6  2  0
  5  7  1  0
  1  5  1  0
  3  8  1  0
  9 10  1  0
 10 11  2  0
 11 12  1  0
 12 13  2  0
 13 14  1  0
 14 15  2  0
 15 16  1  0
 16 17  2  0
 17 18  1  0
  9 18  2  0
 13 18  1  0
 20 21  1  0
 21 22  1  0
 22 23  1  0
 23 24  1  0
 20 24  1  0
 22 19  1  1
 16 19  1  0
 26 27  1  0
 27 28  2  0
 28 29  1  0
 29 30  2  0
 30 31  1  0
 26 31  2  0
 29 32  1  0
 28 33  1  0
 25 26  1  0
 12 25  1  0
  7 15  1  0
M  END
> <chembl_id>
CHEMBL3092318

$$$$

  SciTegic09291413392D

 46 51  0  0  0  0            999 V2000
   12.7723   -8.3728    0.0000 C   0  0
   13.1848   -7.6584    0.0000 C   0  0
   14.0098   -7.6584    0.0000 C   0  0
   14.4223   -8.3728    0.0000 C   0  0
   14.0098   -9.0873    0.0000 C   0  0
   13.1848   -9.0873    0.0000 C   0  0
   11.9473   -8.3728    0.0000 S   0  0
   11.9473   -9.1978    0.0000 O   0  0
   11.1223   -8.3728    0.0000 O   0  0
   11.9473   -7.5478    0.0000 N   0  0
   14.4223   -6.9439    0.0000 C   0  0
   14.0867   -6.1902    0.0000 C   0  0
   14.6998   -5.6382    0.0000 C   0  0
   15.4143   -6.0507    0.0000 C   0  0
   15.2428   -6.8577    0.0000 S   0  0
   11.2328   -7.1353    0.0000 C   0  0
   11.2328   -6.3103    0.0000 C   0  0
   10.5183   -5.8978    0.0000 C   0  0
    9.8039   -6.3103    0.0000 C   0  0
    9.8039   -7.1353    0.0000 C   0  0
   10.5183   -7.5478    0.0000 C   0  0
    9.0894   -5.8978    0.0000 O   0  0
    6.9460   -7.1353    0.0000 N   0  0
    7.6605   -7.5478    0.0000 C   0  0
    8.3749   -7.1353    0.0000 C   0  0
    8.3749   -6.3103    0.0000 C   0  0
    7.6605   -5.8978    0.0000 C   0  0
    7.6605   -5.0728    0.0000 C   0  0
    6.9460   -4.6603    0.0000 C   0  0
    6.2315   -5.0728    0.0000 C   0  0
    6.2315   -5.8978    0.0000 C   0  0
    6.9460   -6.3103    0.0000 C   0  0
    5.5170   -4.6603    0.0000 O   0  0
    4.8026   -5.0728    0.0000 C   0  0
    4.0881   -4.6603    0.0000 C   0  0
    3.3736   -5.0728    0.0000 C   0  0
    2.6592   -4.6603    0.0000 N   0  0
    2.6592   -3.8353    0.0000 C   0  0
    1.9447   -3.4228    0.0000 C   0  0
    1.2302   -3.8353    0.0000 N   0  0
    1.2302   -4.6603    0.0000 C   0  0
    1.9447   -5.0728    0.0000 C   0  0
    0.5157   -3.4228    0.0000 C   0  0
    6.9460   -3.8353    0.0000 O   0  0
    6.2315   -3.4228    0.0000 C   0  0
   10.5183   -5.0728    0.0000 F   0  0
  1  2  1  0
  2  3  2  0
  3  4  1  0
  4  5  2  0
  5  6  1  0
  1  6  2  0
  7  8  2  0
  7  9  2  0
  7 10  1  0
  1  7  1  0
 11 12  2  0
 12 13  1  0
 13 14  2  0
 14 15  1  0
 11 15  1  0
  3 11  1  0
 16 17  1  0
 17 18  2  0
 18 19  1  0
 19 20  2  0
 20 21  1  0
 16 21  2  0
 23 24  2  0
 24 25  1  0
 25 26  2  0
 26 27  1  0
 27 28  2  0
 28 29  1  0
 29 30  2  0
 30 31  1  0
 31 32  2  0
 23 32  1  0
 27 32  1  0
 34 35  1  0
 35 36  1  0
 33 34  1  0
 37 38  1  0
 38 39  1  0
 39 40  1  0
 40 41  1  0
 41 42  1  0
 37 42  1  0
 40 43  1  0
 36 37  1  0
 30 33  1  0
 44 45  1  0
 29 44  1  0
 22 26  1  0
 19 22  1  0
 18 46  1  0
 10 16  1  0
M  END
> <chembl_id>
CHEMBL3263968

$$$$

  SciTegic09291413392D

 45 50  0  0  0  0            999 V2000
   12.3630   -5.6283    0.0000 C   0  0
   12.3630   -6.4533    0.0000 C   0  0
   13.0774   -6.8658    0.0000 C   0  0
   13.7919   -6.4533    0.0000 C   0  0
   13.7919   -5.6283    0.0000 C   0  0
   13.0774   -5.2158    0.0000 C   0  0
   11.6485   -5.2158    0.0000 S   0  0
   12.0610   -4.5013    0.0000 O   0  0
   10.9340   -4.8033    0.0000 O   0  0
   11.2360   -5.9302    0.0000 N   0  0
   13.4899   -8.9603    0.0000 O   0  0
   13.7449   -8.1757    0.0000 C   0  0
   13.0774   -7.6908    0.0000 C   0  0
   12.4100   -8.1757    0.0000 C   0  0
   12.6649   -8.9603    0.0000 C   0  0
   10.4110   -5.9302    0.0000 C   0  0
    9.9985   -6.6447    0.0000 C   0  0
    9.1735   -6.6447    0.0000 C   0  0
    8.7610   -5.9302    0.0000 C   0  0
    9.1735   -5.2158    0.0000 C   0  0
    9.9985   -5.2158    0.0000 C   0  0
    7.9360   -5.9302    0.0000 O   0  0
    6.6985   -3.7868    0.0000 N   0  0
    7.5235   -3.7868    0.0000 C   0  0
    7.9360   -4.5013    0.0000 C   0  0
    7.5235   -5.2158    0.0000 C   0  0
    6.6985   -5.2158    0.0000 C   0  0
    6.2860   -5.9302    0.0000 C   0  0
    5.4610   -5.9302    0.0000 C   0  0
    5.0485   -5.2158    0.0000 C   0  0
    5.4610   -4.5013    0.0000 C   0  0
    6.2860   -4.5013    0.0000 C   0  0
    4.2235   -5.2158    0.0000 O   0  0
    3.8110   -4.5013    0.0000 C   0  0
    2.9860   -4.5013    0.0000 C   0  0
    2.5735   -3.7868    0.0000 C   0  0
    1.7485   -3.7868    0.0000 N   0  0
    1.3360   -4.5013    0.0000 C   0  0
    0.5110   -4.5013    0.0000 C   0  0
    0.0985   -3.7868    0.0000 O   0  0
    0.5110   -3.0723    0.0000 C   0  0
    1.3360   -3.0723    0.0000 C   0  0
    5.0485   -6.6447    0.0000 O   0  0
    4.2235   -6.6447    0.0000 C   0  0
    8.7610   -7.3592    0.0000 F   0  0
  1  2  1  0
  2  3  2  0
  3  4  1  0
  4  5  2  0
  5  6  1  0
  1  6  2  0
  7  8  2  0
  7  9  2  0
  7 10  1  0
  1  7  1  0
 11 12  1  0
 12 13  2  0
 13 14  1  0
 14 15  2  0
 11 15  1  0
  3 13  1  0
 16 17  1  0
 17 18  2  0
 18 19  1  0
 19 20  2  0
 20 21  1  0
 16 21  2  0
 23 24  2  0
 24 25  1  0
 25 26  2  0
 26 27  1  0
 27 28  2  0
 28 29  1  0
 29 30  2  0
 30 31  1  0
 31 32  2  0
 23 32  1  0
 27 32  1  0
 34 35  1  0
 35 36  1  0
 33 34  1  0
 37 38  1  0
 38 39  1  0
 39 40  1  0
 40 41  1  0
 41 42  1  0
 37 42  1  0
 36 37  1  0
 30 33  1  0
 43 44  1  0
 29 43  1  0
 22 26  1  0
 19 22  1  0
 18 45  1  0
 10 16  1  0
M  END
> <chembl_id>
CHEMBL3263960

$$$$

  SciTegic06061310022D

 37 43  0  0  0  0            999 V2000
    5.6598    0.8754    0.0000 N   0  0
    6.2118    0.2623    0.0000 C   0  0
    5.9569   -0.5223    0.0000 N   0  0
    4.8528    0.7039    0.0000 C   0  0
    4.5979   -0.0808    0.0000 C   0  0
    5.1499   -0.6939    0.0000 C   0  0
    4.7374   -1.4083    0.0000 N   0  0
    3.9304   -1.2368    0.0000 N   0  0
    3.8442   -0.4163    0.0000 C   0  0
    4.3008    1.3170    0.0000 N   0  0
    3.1297   -0.0038    0.0000 C   0  0
    2.4152   -0.4163    0.0000 C   0  0
    2.4152    1.2337    0.0000 C   0  0
    3.1297    0.8212    0.0000 C   0  0
    5.0730   -2.1620    0.0000 C   0  0  1  0  0  0
    4.5880   -2.8294    0.0000 C   0  0
    4.9236   -3.5831    0.0000 C   0  0
    5.7441   -3.6693    0.0000 C   0  0  1  0  0  0
    6.2290   -3.0019    0.0000 C   0  0
    5.8934   -2.2482    0.0000 C   0  0
    6.0796   -4.4230    0.0000 N   0  0
    6.9001   -4.5093    0.0000 C   0  0
    7.2357   -5.2629    0.0000 C   0  0
    6.7507   -5.9304    0.0000 O   0  0
    5.9303   -5.8441    0.0000 C   0  0
    5.5947   -5.0905    0.0000 C   0  0
    1.7008    0.8212    0.0000 C   0  0
    1.7008   -0.0038    0.0000 C   0  0
    0.9162   -0.2588    0.0000 N   0  0
    0.4312    0.4087    0.0000 C   0  0
    0.9162    1.0761    0.0000 N   0  0
   -0.3938    0.4087    0.0000 C   0  0
   -0.8063    1.1232    0.0000 C   0  0
   -1.6267    1.2094    0.0000 S   0  0
   -1.7983    2.0164    0.0000 C   0  0
   -1.0838    2.4289    0.0000 C   0  0
   -0.4707    1.8768    0.0000 C   0  0
  8  9  2  0
  9  5  1  0
 15 20  1  0
 16 17  1  0
 17 18  1  0
 18 19  1  0
 19 20  1  0
 15  7  1  6
 21 22  1  0
  4  1  1  0
  4 10  1  0
  5  6  1  0
 11 12  2  0
 12 28  1  0
 21 26  1  0
 22 23  1  0
 23 24  1  0
 24 25  1  0
 25 26  1  0
 18 21  1  1
 27 28  2  0
  2  3  1  0
 27 13  1  0
  3  6  2  0
 13 14  2  0
 14 11  1  0
 28 29  1  0
 29 30  1  0
 30 31  2  0
 31 27  1  0
  9 11  1  0
 30 32  1  0
 15 16  1  0
 32 33  1  0
 33 34  1  0
  1  2  2  0
  5  4  2  0
  6  7  1  0
  7  8  1  0
 34 35  1  0
 35 36  2  0
 36 37  1  0
 37 33  2  0
M  END
> <chembl_id>
CHEMBL248877

$$$$

  SciTegic06051313552D

 28 32  0  0  0  0            999 V2000
    8.3356  -25.5888    0.0000 C   0  0
    8.3344  -26.4083    0.0000 C   0  0
    9.0425  -26.8173    0.0000 C   0  0
    9.7521  -26.4078    0.0000 C   0  0
    9.7493  -25.5851    0.0000 C   0  0
    9.0407  -25.1799    0.0000 C   0  0
   10.4300  -25.1330    0.0000 C   0  0
   11.1973  -25.4142    0.0000 C   0  0
   11.7018  -24.7714    0.0000 C   0  0
   11.2459  -24.0934    0.0000 N   0  0
   10.4603  -24.3164    0.0000 N   0  0
   11.6515  -23.3840    0.0000 C   0  0
   12.5163  -24.8015    0.0000 C   0  0
   13.7623  -24.1382    0.0000 C   0  0
   12.9477  -24.1114    0.0000 C   0  0
   14.1490  -24.8629    0.0000 C   0  0
   12.4665  -23.3835    0.0000 C   0  0
   12.8720  -22.6749    0.0000 C   0  0
   12.4603  -21.9680    0.0000 C   0  0
   11.6389  -21.9741    0.0000 C   0  0
   11.2371  -22.6833    0.0000 C   0  0
   13.7134  -25.5534    0.0000 C   0  0
   12.8983  -25.5224    0.0000 C   0  0
   12.4658  -26.2117    0.0000 C   0  0
   12.8472  -26.9324    0.0000 C   0  0
   13.6655  -26.9595    0.0000 C   0  0
   14.0943  -26.2695    0.0000 C   0  0
    7.6264  -26.8164    0.0000 Cl  0  0
  1  2  2  0
  2  3  1  0
  3  4  2  0
  4  5  1  0
  5  6  2  0
  6  1  1  0
  7  8  1  0
  8  9  1  0
  9 10  1  0
 10 11  1  0
 11  7  2  0
  5  7  1  0
 10 12  1  0
 13 23  2  0
 16 14  1  0
 14 15  2  0
 15 13  1  0
  9 13  1  0
 16 22  2  0
 12 17  2  0
 17 18  1  0
 18 19  2  0
 19 20  1  0
 20 21  2  0
 21 12  1  0
 22 23  1  0
 23 24  1  0
 24 25  2  0
 25 26  1  0
 26 27  2  0
 27 22  1  0
  2 28  1  0
M  END
> <chembl_id>
CHEMBL2325090

$$$$

  SciTegic05221516342D

 44 49  0  0  0  0            999 V2000
   25.3439  -11.0279    0.0000 C   0  0
   25.3427  -11.8475    0.0000 C   0  0
   26.0508  -12.2564    0.0000 N   0  0
   26.7605  -11.8470    0.0000 C   0  0
   26.7576  -11.0243    0.0000 N   0  0
   26.0490  -10.6191    0.0000 C   0  0
   26.0471   -9.8019    0.0000 C   0  0
   26.7067   -9.3196    0.0000 C   0  0
   26.4519   -8.5432    0.0000 N   0  0
   25.3846   -9.3236    0.0000 C   0  0
   25.6314   -8.5424    0.0000 N   0  0
   25.0814   -7.9414    0.0000 C   0  0
   24.2816   -8.1159    0.0000 C   0  0
   24.0348   -8.8971    0.0000 C   0  0
   24.5877   -9.5037    0.0000 C   0  0
   24.6361  -10.6195    0.0000 Cl  0  0
   27.4688  -12.2545    0.0000 N   0  0
   28.1759  -11.8448    0.0000 C   0  0
   28.8809  -12.2527    0.0000 C   0  0
   29.5875  -11.8437    0.0000 C   0  0
   29.5866  -11.0256    0.0000 C   0  0
   28.8733  -10.6183    0.0000 C   0  0
   28.1696  -11.0296    0.0000 C   0  0
   28.8810  -13.0699    0.0000 O   0  0
   28.1733  -13.4785    0.0000 C   0  0
   28.8691   -9.8011    0.0000 N   0  0
   28.1594   -9.3961    0.0000 C   0  0
   28.1552   -8.5789    0.0000 C   0  0
   27.4537   -9.8083    0.0000 O   0  0
   28.8608   -8.1667    0.0000 C   0  0
   30.2932  -10.6149    0.0000 N   0  0
   31.0003  -11.0271    0.0000 C   0  0
   31.7047  -10.6199    0.0000 C   0  0
   31.7066   -9.8024    0.0000 N   0  0
   30.9978   -9.3936    0.0000 C   0  0
   30.2872   -9.8025    0.0000 C   0  0
   32.4146   -9.3944    0.0000 C   0  0
   32.4153   -8.5772    0.0000 O   0  0
   33.1220   -9.8036    0.0000 C   0  0  2  0  0  0
   33.1182  -10.6202    0.0000 N   0  0
   33.8215  -11.0293    0.0000 C   0  0
   34.5320  -10.6248    0.0000 C   0  0
   34.5347   -9.8067    0.0000 C   0  0
   33.8269   -9.3930    0.0000 C   0  0
  1  2  2  0
  2  3  1  0
  3  4  2  0
  4  5  1  0
  5  6  2  0
  6  1  1  0
  7  8  1  0
  8  9  2  0
  9 11  1  0
 10  7  2  0
  6  7  1  0
 10 11  1  0
 10 15  1  0
 11 12  1  0
 12 13  2  0
 13 14  1  0
 14 15  2  0
  1 16  1  0
  4 17  1  0
 17 18  1  0
 18 19  2  0
 19 20  1  0
 20 21  2  0
 21 22  1  0
 22 23  2  0
 23 18  1  0
 19 24  1  0
 24 25  1  0
 22 26  1  0
 26 27  1  0
 27 28  1  0
 27 29  2  0
 28 30  2  0
 21 31  1  0
 31 32  1  0
 31 36  1  0
 32 33  1  0
 33 34  1  0
 34 35  1  0
 35 36  1  0
 34 37  1  0
 37 38  2  0
 39 37  1  1
 39 40  1  0
 39 44  1  0
 40 41  1  0
 41 42  1  0
 42 43  1  0
 43 44  1  0
M  END
> <chembl_id>
CHEMBL3353398

$$$$

  SciTegic12171313052D

 31 34  0  0  0  0            999 V2000
   21.4148  -10.0333    0.0000 C   0  0
   21.4136  -10.8528    0.0000 C   0  0
   22.1217  -11.2618    0.0000 C   0  0
   22.8313  -10.8523    0.0000 C   0  0
   22.8285  -10.0297    0.0000 C   0  0
   22.1199   -9.6244    0.0000 C   0  0
   22.1174   -8.8072    0.0000 N   0  0
   22.8239   -8.3965    0.0000 C   0  0
   23.5343   -8.8074    0.0000 N   0  0
   23.5244   -7.1730    0.0000 C   0  0
   22.8213   -7.5854    0.0000 N   0  0
   24.2383   -7.5793    0.0000 C   0  0
   24.2391   -8.3991    0.0000 C   0  0
   24.9455   -8.8060    0.0000 N   0  0
   25.6556   -8.3977    0.0000 C   0  0
   25.6548   -7.5780    0.0000 C   0  0
   24.9439   -7.1665    0.0000 N   0  0
   24.9466   -9.6205    0.0000 C   0  0
   24.2371  -10.0282    0.0000 C   0  0
   24.2364  -10.8446    0.0000 C   0  0
   24.9445  -11.2543    0.0000 C   0  0
   25.6547  -10.8416    0.0000 C   0  0
   25.6519  -10.0266    0.0000 C   0  0
   26.3632   -8.8066    0.0000 O   0  0
   20.7056  -11.2608    0.0000 N   0  0
   19.9982  -10.8517    0.0000 C   0  0
   19.2902  -11.2597    0.0000 O   0  0
   19.9989  -10.0345    0.0000 C   0  0
   19.2915   -9.6253    0.0000 C   0  0
   24.9452  -12.0715    0.0000 O   0  0
   24.2379  -12.4807    0.0000 C   0  0
  1  2  2  0
  2  3  1  0
  3  4  2  0
  4  5  1  0
  5  6  2  0
  6  1  1  0
  6  7  1  0
  7  8  1  0
  8  9  2  0
  9 13  1  0
 12 10  1  0
 10 11  2  0
 11  8  1  0
 12 13  2  0
 12 17  1  0
 13 14  1  0
 14 15  1  0
 15 16  1  0
 16 17  2  0
 18 19  2  0
 19 20  1  0
 20 21  2  0
 21 22  1  0
 22 23  2  0
 23 18  1  0
 14 18  1  0
 15 24  2  0
  2 25  1  0
 25 26  1  0
 26 27  2  0
 26 28  1  0
 28 29  2  0
 21 30  1  0
 30 31  1  0
M  END
> <chembl_id>
CHEMBL2437476

$$$$

  SciTegic12201610342D

 41 44  0  0  0  0            999 V2000
    2.5951   -3.0039    0.0000 C   0  0
    3.8933   -3.7570    0.0000 C   0  0
    3.8916   -4.9570    0.0000 C   0  0
    1.5548   -3.6021    0.0000 O   0  0
    2.5973   -1.5031    0.0000 N   0  0
    1.2990   -0.7500    0.0000 C   0  0
    1.2990    0.7500    0.0000 C   0  0
    0.0000    1.5000    0.0000 C   0  0
   -1.2990    0.7500    0.0000 C   0  0
   -1.2990   -0.7500    0.0000 C   0  0
    0.0000   -1.5000    0.0000 C   0  0
   -0.0031    3.0008    0.0000 O   0  0
   -3.9021    3.7404    0.0000 C   0  0
   -2.6005    2.9949    0.0000 N   0  0
   -1.3039    3.7494    0.0000 C   0  0
   -1.3092    5.2494    0.0000 C   0  0
   -2.6108    5.9949    0.0000 C   0  0
   -3.9073    5.2404    0.0000 N   0  0
   -0.0136    6.0070    0.0000 S   0  0
   -0.0195    7.2070    0.0000 C   0  0
   -5.2008    2.9882    0.0000 N   0  0
   -6.5021    3.7360    0.0000 C   0  0
   -7.8012    2.9860    0.0000 C   0  0
   -9.1002    3.7360    0.0000 C   0  0
   -9.1002    5.2360    0.0000 C   0  0
   -7.8012    5.9860    0.0000 C   0  0
   -6.5021    5.2360    0.0000 C   0  0
  -10.3999    5.9864    0.0000 N   0  0
  -11.7002    5.2385    0.0000 C   0  0
  -12.9981    5.9906    0.0000 C   0  0
  -12.9957    7.4906    0.0000 N   0  0
  -11.6955    8.2385    0.0000 C   0  0
  -10.3976    7.4864    0.0000 C   0  0
  -14.2927    8.2457    0.0000 C   0  0
  -15.3339    7.6492    0.0000 O   0  0
  -14.2882    9.7465    0.0000 C   0  0
   -7.8043    1.4852    0.0000 O   0  0
   -8.8444    0.8867    0.0000 C   0  0
  -15.3252   10.3503    0.0000 F   0  0
  -14.2840   10.9465    0.0000 F   0  0
  -13.2470   10.3431    0.0000 F   0  0
  1  2  1  0
  2  3  2  0
  1  4  2  0
  1  5  1  0
  6  7  1  0
  7  8  2  0
  8  9  1  0
  9 10  2  0
 10 11  1  0
  6 11  2  0
 13 14  1  0
 14 15  2  0
 15 16  1  0
 16 17  2  0
 17 18  1  0
 13 18  2  0
 19 20  1  0
 16 19  1  0
 22 23  1  0
 23 24  2  0
 24 25  1  0
 25 26  2  0
 26 27  1  0
 22 27  2  0
 28 29  1  0
 29 30  1  0
 30 31  1  0
 31 32  1  0
 32 33  1  0
 28 33  1  0
 34 35  2  0
 34 36  1  0
 31 34  1  0
 25 28  1  0
 37 38  1  0
 23 37  1  0
 21 22  1  0
 13 21  1  0
 12 15  1  0
  8 12  1  0
  5  6  1  0
 36 39  1  0
 36 40  1  0
 36 41  1  0
M  END
> <chembl_id>
CHEMBL3799255

$$$$

  SciTegic09081514162D

 38 42  0  0  0  0            999 V2000
    1.2990   -0.7500    0.0000 N   0  0
    1.2990    0.7500    0.0000 C   0  0
    0.0000    1.5000    0.0000 N   0  0
   -1.2990    0.7500    0.0000 C   0  0
   -1.2990   -0.7500    0.0000 C   0  0
    0.0000   -1.5000    0.0000 C   0  0
   -2.5973    1.5031    0.0000 O   0  0
    2.5972    1.5031    0.0000 N   0  0
    2.5951    3.0039    0.0000 C   0  0
   -3.8990    0.7562    0.0000 C   0  0
   -5.1976    1.5069    0.0000 C   0  0
   -6.4972    0.7578    0.0000 C   0  0
   -6.4981   -0.7422    0.0000 C   0  0
   -5.1996   -1.4931    0.0000 C   0  0
   -3.9001   -0.7439    0.0000 C   0  0
    3.8915    3.7585    0.0000 C   0  0
    3.8863    5.2585    0.0000 C   0  0
    2.5847    6.0040    0.0000 C   0  0
    1.2883    5.2495    0.0000 C   0  0
    1.2934    3.7495    0.0000 C   0  0
    2.5795    7.5047    0.0000 N   0  0
    3.8747    8.2614    0.0000 C   0  0
    3.8671    9.7614    0.0000 C   0  0
    2.5643   10.5048    0.0000 N   0  0
    1.2691    9.7483    0.0000 C   0  0
    1.2767    8.2483    0.0000 C   0  0
   -2.3383   -1.3500    0.0000 Cl  0  0
   -5.1975   -2.9939    0.0000 N   0  0
   -3.8972   -3.7433    0.0000 C   0  0
   -3.8950   -5.2441    0.0000 C   0  0
   -2.8586   -3.1422    0.0000 O   0  0
   -2.5947   -5.9935    0.0000 C   0  0
    2.5583   11.7048    0.0000 C   0  0
    5.1954    3.0153    0.0000 O   0  0
    6.2317    3.6204    0.0000 C   0  0
   -2.5926   -7.4944    0.0000 C   0  0
   -1.8435   -8.7025    0.0000 C   0  0
   -3.3435   -8.7014    0.0000 C   0  0
  1  2  2  0
  2  3  1  0
  3  4  2  0
  4  5  1  0
  5  6  2  0
  6  1  1  0
  4  7  1  0
  2  8  1  0
  8  9  1  0
  7 10  1  0
 10 11  2  0
 11 12  1  0
 12 13  2  0
 13 14  1  0
 14 15  2  0
 15 10  1  0
  9 16  2  0
 16 17  1  0
 17 18  2  0
 18 19  1  0
 19 20  2  0
 20  9  1  0
 21 22  1  0
 22 23  1  0
 23 24  1  0
 24 25  1  0
 25 26  1  0
 26 21  1  0
 18 21  1  0
  5 27  1  0
 14 28  1  0
 28 29  1  0
 29 30  1  0
 29 31  2  0
 30 32  2  0
 24 33  1  0
 16 34  1  0
 34 35  1  0
 32 36  1  0
 37 36  1  0
 38 37  1  0
 36 38  1  0
M  END
> <chembl_id>
CHEMBL3425672

$$$$

  SciTegic12201615542D

 33 37  0  0  0  0            999 V2000
    1.4499    7.7742    0.0000 C   0  0
    0.5265    8.9573    0.0000 C   0  0
    0.9759   10.0700    0.0000 C   0  0
    2.6383    7.9411    0.0000 O   0  0
    0.8879    6.3826    0.0000 N   0  0
    1.8114    5.1995    0.0000 C   0  0
    1.2517    3.8078    0.0000 C   0  0
    2.1749    2.6315    0.0000 C   0  0
    3.6621    2.8384    0.0000 C   0  0
    4.2218    4.2301    0.0000 C   0  0
    3.2965    5.4106    0.0000 C   0  0
   -1.0028   -1.5132    0.0000 C   0  0
    0.2917   -0.7475    0.0000 C   0  0
    0.2917    0.7475    0.0000 C   0  0
   -1.0028    1.5132    0.0000 C   0  0
   -2.3155    0.7475    0.0000 C   0  0
   -2.3155   -0.7475    0.0000 C   0  0
    2.5889    0.0182    0.0000 C   0  0
    1.7138   -1.2033    0.0000 N   0  0
    1.7138    1.2033    0.0000 N   0  0
    4.0896    0.0290    0.0000 C   0  0
    4.9234    1.2700    0.0000 C   0  0
    4.7453   -1.3220    0.0000 N   0  0
    6.4199    1.1671    0.0000 N   0  0
    7.0791   -0.1803    0.0000 C   0  0
    6.2418   -1.4248    0.0000 C   0  0
    7.2286   -5.1568    0.0000 N   0  0
    8.5770   -4.4998    0.0000 N   0  0
    8.3688   -3.0143    0.0000 C   0  0
    6.9013   -2.7729    0.0000 C   0  0
    6.1870   -4.0774    0.0000 C   0  0
    7.0198   -6.3385    0.0000 C   0  0
    4.3957    2.3477    0.0000 N   0  0
  1  2  1  0
  2  3  2  0
  1  4  2  0
  1  5  1  0
  6  7  1  0
  7  8  2  0
  8  9  1  0
  9 10  2  0
 10 11  1  0
  6 11  2  0
 12 13  1  0
 13 14  2  0
 14 15  1  0
 15 16  2  0
 16 17  1  0
 12 17  2  0
 18 19  2  0
 18 20  1  0
 13 19  1  0
 14 20  1  0
 21 22  1  0
 21 23  2  0
 22 24  2  0
 24 25  1  0
 25 26  2  0
 23 26  1  0
 27 28  1  0
 28 29  2  0
 29 30  1  0
 30 31  2  0
 27 31  1  0
 27 32  1  0
 26 30  1  0
 22 33  1  0
 18 21  1  0
  8 20  1  0
  5  6  1  0
M  END
> <chembl_id>
CHEMBL3813947

$$$$

  SciTegic12171313052D

 27 30  0  0  0  0            999 V2000
   14.3118   -3.8011    0.0000 C   0  0
   14.3107   -4.6207    0.0000 C   0  0
   15.0187   -5.0296    0.0000 C   0  0
   15.7284   -4.6202    0.0000 C   0  0
   15.7255   -3.7975    0.0000 C   0  0
   15.0169   -3.3923    0.0000 C   0  0
   15.0145   -2.5751    0.0000 N   0  0
   15.7210   -2.1644    0.0000 C   0  0
   16.4314   -2.5753    0.0000 N   0  0
   16.4215   -0.9409    0.0000 C   0  0
   15.7184   -1.3533    0.0000 N   0  0
   17.1354   -1.3472    0.0000 C   0  0
   17.1361   -2.1669    0.0000 C   0  0
   17.8425   -2.5739    0.0000 N   0  0
   18.5527   -2.1656    0.0000 C   0  0
   18.5519   -1.3459    0.0000 C   0  0
   17.8410   -0.9344    0.0000 N   0  0
   17.8437   -3.3884    0.0000 C   0  0
   17.1342   -3.7961    0.0000 C   0  0
   17.1335   -4.6125    0.0000 C   0  0
   17.8415   -5.0222    0.0000 C   0  0
   18.5518   -4.6095    0.0000 C   0  0
   18.5490   -3.7944    0.0000 C   0  0
   19.2602   -2.5745    0.0000 O   0  0
   13.6026   -5.0287    0.0000 N   0  0
   17.8423   -5.8394    0.0000 O   0  0
   17.1349   -6.2486    0.0000 C   0  0
  1  2  2  0
  2  3  1  0
  3  4  2  0
  4  5  1  0
  5  6  2  0
  6  1  1  0
  6  7  1  0
  7  8  1  0
  8  9  2  0
  9 13  1  0
 12 10  1  0
 10 11  2  0
 11  8  1  0
 12 13  2  0
 12 17  1  0
 13 14  1  0
 14 15  1  0
 15 16  1  0
 16 17  2  0
 18 19  2  0
 19 20  1  0
 20 21  2  0
 21 22  1  0
 22 23  2  0
 23 18  1  0
 14 18  1  0
 15 24  2  0
  2 25  1  0
 21 26  1  0
 26 27  1  0
M  END
> <chembl_id>
CHEMBL2437474

$$$$

  SciTegic11131809392D

 30 34  0  0  0  0            999 V2000
    2.5584  -11.7048    0.0000 C   0  0
    2.5644  -10.5048    0.0000 N   0  0
    3.8672   -9.7614    0.0000 C   0  0
    3.8748   -8.2614    0.0000 C   0  0
    2.5795   -7.5047    0.0000 N   0  0
    1.2767   -8.2483    0.0000 C   0  0
    1.2692   -9.7483    0.0000 C   0  0
    2.5847   -6.0040    0.0000 C   0  0
    3.8864   -5.2585    0.0000 C   0  0
    3.8915   -3.7585    0.0000 C   0  0
    2.5951   -3.0039    0.0000 C   0  0
    2.5973   -1.5031    0.0000 N   0  0
    1.2990   -0.7500    0.0000 C   0  0
    1.2990    0.7500    0.0000 N   0  0
    0.0000    1.5000    0.0000 C   0  0
   -1.2990    0.7500    0.0000 C   0  0
   -2.7248    1.2135    0.0000 N   0  0
   -3.6065    0.0000    0.0000 C   0  0
   -5.1047   -0.0031    0.0000 N   0  0
   -5.8532   -1.3040    0.0000 C   0  0
   -7.3533   -1.3093    0.0000 C   0  0
   -8.0987   -2.6109    0.0000 C   0  0
   -7.3442   -3.9074    0.0000 C   0  0
   -5.8442   -3.9021    0.0000 C   0  0
   -5.0987   -2.6005    0.0000 C   0  0
   -2.7248   -1.2135    0.0000 N   0  0
   -1.2990   -0.7500    0.0000 C   0  0
    0.0000   -1.5000    0.0000 N   0  0
    1.2935   -3.7495    0.0000 C   0  0
    1.2883   -5.2495    0.0000 C   0  0
  1  2  1  0
  2  3  1  0
  3  4  1  0
  4  5  1  0
  5  6  1  0
  6  7  1  0
  7  2  1  0
  5  8  1  0
  8  9  2  0
  9 10  1  0
 10 11  2  0
 11 12  1  0
 12 13  1  0
 13 14  2  0
 14 15  1  0
 15 16  2  0
 16 17  1  0
 17 18  2  0
 18 19  1  0
 19 20  1  0
 20 21  2  0
 21 22  1  0
 22 23  2  0
 23 24  1  0
 24 25  2  0
 25 20  1  0
 18 26  1  0
 26 27  1  0
 27 16  1  0
 27 28  2  0
 28 13  1  0
 11 29  1  0
 29 30  2  0
 30  8  1  0
M  END
> <chembl_id>
CHEMBL2178368

$$$$

  SciTegic01161211252D

 36 40  0  0  0  0            999 V2000
   15.2789  -15.7485    0.0000 N   0  0
   15.9953  -15.3352    0.0000 C   0  0
   15.9925  -14.5047    0.0000 N   0  0
   15.2771  -14.0955    0.0000 C   0  0
   14.5641  -15.3357    0.0000 C   0  0
   14.5653  -14.5068    0.0000 C   0  0
   13.7773  -14.2494    0.0000 C   0  0
   13.2891  -14.9193    0.0000 C   0  0
   13.7753  -15.5906    0.0000 O   0  0
   15.2753  -13.2705    0.0000 N   0  0
   12.4674  -14.9179    0.0000 C   0  0
   12.0565  -14.2012    0.0000 C   0  0
   11.2323  -14.1996    0.0000 C   0  0
   10.8179  -14.9140    0.0000 C   0  0
   11.2338  -15.6315    0.0000 C   0  0
   12.0567  -15.6295    0.0000 C   0  0
   13.3735  -13.5309    0.0000 C   0  0
   13.7967  -12.8214    0.0000 C   0  0
   13.3938  -12.1023    0.0000 C   0  0
   12.5680  -12.0916    0.0000 C   0  0
   12.1467  -12.8058    0.0000 C   0  0
   12.5520  -13.5220    0.0000 C   0  0
   15.9888  -12.8565    0.0000 C   0  0  2  0  0  0
   16.7042  -13.2674    0.0000 C   0  0
   15.9870  -12.0315    0.0000 C   0  0
   16.7006  -11.6174    0.0000 O   0  0
   16.7032  -14.0927    0.0000 C   0  0
   17.4177  -14.5036    0.0000 C   0  0
   18.1323  -14.0895    0.0000 C   0  0
   18.1278  -13.2602    0.0000 C   0  0
   17.4127  -12.8531    0.0000 C   0  0
   12.1635  -11.3725    0.0000 N   0  0
   11.3386  -11.3633    0.0000 C   0  0
   10.9341  -10.6443    0.0000 C   0  0
   10.9181  -12.0731    0.0000 O   0  0
   10.1091  -10.6350    0.0000 C   0  0
  7  8  2  0
 17 18  2  0
  8  9  1  0
 18 19  1  0
  9  5  1  0
 19 20  2  0
  4  6  1  0
 20 21  1  0
  4 10  1  0
 21 22  2  0
 22 17  1  0
  7 17  1  0
  5  6  2  0
 23 10  1  6
  1  2  2  0
 23 24  1  0
 11 12  2  0
 23 25  1  0
  5  1  1  0
 25 26  1  0
 12 13  1  0
 24 27  2  0
  2  3  1  0
 27 28  1  0
 13 14  2  0
 28 29  2  0
 29 30  1  0
 14 15  1  0
 30 31  2  0
 31 24  1  0
  3  4  2  0
 20 32  1  0
 15 16  2  0
 32 33  1  0
 16 11  1  0
 33 34  1  0
  8 11  1  0
 33 35  2  0
  6  7  1  0
 34 36  2  0
M  END
> <chembl_id>
CHEMBL1172773

$$$$

  SciTegic09261414462D

 29 31  0  0  0  0            999 V2000
    9.0177  -16.3836    0.0000 N   0  0
    9.7274  -15.9742    0.0000 C   0  0
    9.7246  -15.1515    0.0000 N   0  0
    9.0159  -14.7463    0.0000 C   0  0
    8.3097  -15.9747    0.0000 C   0  0
    8.3109  -15.1582    0.0000 C   0  0
    7.5347  -14.9046    0.0000 C   0  0
    7.0537  -15.5645    0.0000 C   0  0
    7.5327  -16.2258    0.0000 S   0  0
    9.0122  -13.9291    0.0000 N   0  0
    9.7180  -13.5173    0.0000 C   0  0
   10.4254  -13.9274    0.0000 C   0  0
   11.1307  -13.5162    0.0000 C   0  0
   11.1274  -12.6982    0.0000 C   0  0
   10.4129  -12.2930    0.0000 C   0  0
    9.7104  -12.7065    0.0000 C   0  0
    6.2365  -15.5634    0.0000 N   0  0
    5.8290  -14.8551    0.0000 C   0  0
    5.0118  -14.8539    0.0000 C   0  0
    6.2386  -14.1479    0.0000 O   0  0
   11.8327  -12.2854    0.0000 F   0  0
   11.8401  -13.9219    0.0000 Cl  0  0
    4.6042  -14.1456    0.0000 N   0  0
    5.0138  -13.4385    0.0000 C   0  0
    3.7870  -14.1444    0.0000 C   0  0
    3.3794  -13.4361    0.0000 C   0  0
    2.5622  -13.4349    0.0000 N   0  0
    2.1547  -12.7266    0.0000 C   0  0
    2.1526  -14.1420    0.0000 C   0  0
  5  1  1  0
  1  2  2  0
  2  3  1  0
  3  4  2  0
  4  6  1  0
  5  6  2  0
  6  7  1  0
  7  8  2  0
  8  9  1  0
  9  5  1  0
  4 10  1  0
 10 11  1  0
 11 12  2  0
 12 13  1  0
 13 14  2  0
 14 15  1  0
 15 16  2  0
 16 11  1  0
  8 17  1  0
 17 18  1  0
 18 19  1  0
 18 20  2  0
 14 21  1  0
 13 22  1  0
 19 23  1  0
 23 24  1  0
 23 25  1  0
 25 26  1  0
 26 27  1  0
 27 28  1  0
 27 29  1  0
M  END
> <chembl_id>
CHEMBL3233762

$$$$

  SciTegic09081514182D

 31 32  0  0  0  0            999 V2000
    1.2990   -0.7500    0.0000 C   0  0
    1.2990    0.7500    0.0000 C   0  0
    0.0000    1.5000    0.0000 C   0  0
   -1.2990    0.7500    0.0000 C   0  0
   -1.2990   -0.7500    0.0000 C   0  0
    0.0000   -1.5000    0.0000 C   0  0
   -2.5972   -1.5031    0.0000 C   0  0
   -2.5951   -3.0039    0.0000 C   0  0
   -3.8933   -3.7570    0.0000 C   0  0
   -3.8912   -5.2578    0.0000 C   0  0
   -4.9336   -3.1588    0.0000 O   0  0
   -5.1894   -6.0109    0.0000 C   0  0
   -5.1872   -7.5117    0.0000 C   0  0
   -6.2296   -5.4127    0.0000 O   0  0
   -6.4854   -8.2648    0.0000 C   0  0
   -6.4833   -9.7657    0.0000 C   0  0
   -7.7797  -10.5203    0.0000 C   0  0
   -7.7745  -12.0202    0.0000 C   0  0
   -6.4729  -12.7657    0.0000 C   0  0
   -5.1764  -12.0112    0.0000 C   0  0
   -5.1816  -10.5113    0.0000 C   0  0
    2.3383   -1.3500    0.0000 O   0  0
    2.3383    1.3500    0.0000 O   0  0
   -6.4687  -13.9657    0.0000 O   0  0
   -3.8726  -12.7545    0.0000 O   0  0
   -2.5916   -6.0087    0.0000 C   0  0
   -2.5912   -7.5095    0.0000 C   0  0
   -1.2916   -8.2603    0.0000 C   0  0
   -1.2913   -9.4603    0.0000 O   0  0
   -0.2524   -7.6603    0.0000 O   0  0
   -2.8363  -12.1494    0.0000 C   0  0
  1  2  2  0
  2  3  1  0
  3  4  2  0
  4  5  1  0
  5  6  2  0
  6  1  1  0
  5  7  1  0
  7  8  2  0
  8  9  1  0
  9 10  2  0
  9 11  1  0
 10 12  1  0
 12 13  1  0
 12 14  2  0
 13 15  2  0
 15 16  1  0
 16 17  2  0
 17 18  1  0
 18 19  2  0
 19 20  1  0
 20 21  2  0
 21 16  1  0
  1 22  1  0
  2 23  1  0
 19 24  1  0
 20 25  1  0
 10 26  1  0
 26 27  1  0
 27 28  1  0
 28 29  2  0
 28 30  1  0
 25 31  1  0
M  END
> <chembl_id>
CHEMBL3402856

$$$$

  SciTegic12161615052D

 32 35  0  0  0  0            999 V2000
    1.2990   -0.7500    0.0000 C   0  0
    1.2990    0.7500    0.0000 C   0  0
    0.0000    1.5000    0.0000 C   0  0
   -1.2990    0.7500    0.0000 C   0  0
   -1.2990   -0.7500    0.0000 C   0  0
    0.0000   -1.5000    0.0000 N   0  0
    2.5972    1.5031    0.0000 C   0  0
    3.6375    0.9049    0.0000 O   0  0
    2.5951    3.0039    0.0000 N   0  0
    2.3383   -1.3500    0.0000 O   0  0
    3.8933    3.7570    0.0000 C   0  0
    3.8933    5.2571    0.0000 C   0  0
    5.1924    6.0071    0.0000 C   0  0
    6.4914    5.2571    0.0000 C   0  0
    6.4915    3.7571    0.0000 C   0  0
    5.1925    3.0071    0.0000 C   0  0
    7.7911    6.0075    0.0000 N   0  0
    7.7935    7.5076    0.0000 C   0  0
    9.0937    8.2556    0.0000 C   0  0
   10.3916    7.5036    0.0000 N   0  0
   10.3893    6.0036    0.0000 C   0  0
    9.0891    5.2556    0.0000 C   0  0
   11.4318    8.1019    0.0000 C   0  0
   -0.0031    3.0008    0.0000 N   0  0
   -1.3039    3.7494    0.0000 C   0  0
   -1.3070    5.2502    0.0000 C   0  0
   -2.6078    5.9988    0.0000 C   0  0
   -2.6131    7.4988    0.0000 C   0  0
   -3.9148    8.2443    0.0000 C   0  0
   -5.2112    7.4898    0.0000 C   0  0
   -5.2060    5.9898    0.0000 C   0  0
   -3.9044    5.2443    0.0000 C   0  0
  1  2  1  0
  2  3  2  0
  3  4  1  0
  4  5  2  0
  5  6  1  0
  1  6  1  0
  7  8  2  0
  7  9  1  0
  2  7  1  0
  1 10  2  0
 11 12  1  0
 12 13  2  0
 13 14  1  0
 14 15  2  0
 15 16  1  0
 11 16  2  0
 17 18  1  0
 18 19  1  0
 19 20  1  0
 20 21  1  0
 21 22  1  0
 17 22  1  0
 20 23  1  0
 14 17  1  0
  9 11  1  0
  3 24  1  0
 24 25  1  0
 25 26  1  0
 26 27  1  0
 27 28  2  0
 28 29  1  0
 29 30  2  0
 30 31  1  0
 31 32  2  0
 32 27  1  0
M  END
> <chembl_id>
CHEMBL3780109

$$$$

  SciTegic04091414152D

 41 45  0  0  0  0            999 V2000
   31.1092  -10.2465    0.0000 N   0  0
   31.1080  -11.0740    0.0000 C   0  0
   31.8229  -11.4869    0.0000 N   0  0
   31.8211   -9.8338    0.0000 C   0  0
   32.5365  -10.2429    0.0000 C   0  0
   32.5374  -11.0698    0.0000 C   0  0
   33.2527  -11.4808    0.0000 N   0  0
   33.9678  -11.0661    0.0000 C   0  0
   33.9630  -10.2359    0.0000 N   0  0
   33.2470   -9.8288    0.0000 C   0  0
   30.3932  -11.4860    0.0000 N   0  0
   34.6838  -11.4758    0.0000 O   0  0
   34.6749   -9.8192    0.0000 C   0  0
   35.3920  -10.2273    0.0000 C   0  0
   35.3924  -11.0519    0.0000 C   0  0
   36.1085  -11.4600    0.0000 C   0  0
   36.8215  -11.0430    0.0000 C   0  0
   36.8138  -10.2138    0.0000 C   0  0
   36.0971   -9.8095    0.0000 C   0  0
   30.3925  -12.3110    0.0000 C   0  0
   29.6776  -12.7214    0.0000 C   0  0
   29.6766  -13.5457    0.0000 C   0  0
   30.3913  -13.9597    0.0000 C   0  0
   31.1085  -13.5432    0.0000 C   0  0
   31.1060  -12.7203    0.0000 C   0  0
   30.3918  -14.7847    0.0000 N   0  0
   29.6771  -15.1983    0.0000 C   0  0
   29.6756  -16.0197    0.0000 C   0  0
   30.3885  -16.4358    0.0000 N   0  0
   31.1046  -16.0240    0.0000 C   0  0
   31.1078  -15.1964    0.0000 C   0  0
   30.3857  -17.2608    0.0000 C   0  0
   28.9639  -12.3076    0.0000 O   0  0
   28.2485  -12.7187    0.0000 C   0  0
   33.2544  -12.3059    0.0000 C   0  0
   33.9697  -12.7169    0.0000 C   0  0
   33.9714  -13.5420    0.0000 N   0  0
   34.6869  -13.9530    0.0000 C   0  0
   34.6886  -14.7781    0.0000 C   0  0
   35.4006  -13.5390    0.0000 O   0  0
   35.4039  -15.1891    0.0000 C   0  0
  1  2  2  0
  2  3  1  0
  3  6  2  0
  5  4  2  0
  4  1  1  0
  5  6  1  0
  6  7  1  0
  7  8  1  0
  8  9  1  0
  9 10  1  0
 10  5  1  0
  2 11  1  0
  8 12  2  0
  9 13  1  0
 13 14  1  0
 14 15  2  0
 15 16  1  0
 16 17  2  0
 17 18  1  0
 18 19  2  0
 19 14  1  0
 11 20  1  0
 20 21  2  0
 21 22  1  0
 22 23  2  0
 23 24  1  0
 24 25  2  0
 25 20  1  0
 23 26  1  0
 26 27  1  0
 26 31  1  0
 27 28  1  0
 28 29  1  0
 29 30  1  0
 30 31  1  0
 29 32  1  0
 21 33  1  0
 33 34  1  0
 35  7  1  0
 35 36  1  0
 36 37  1  0
 37 38  1  0
 38 39  1  0
 38 40  2  0
 39 41  2  0
M  END
> <chembl_id>
CHEMBL3087203

$$$$

  SciTegic04091414352D

 33 36  0  0  0  0            999 V2000
    7.6596   -4.4168    0.0000 N   0  0
    8.3731   -4.8310    0.0000 C   0  0
    8.3712   -5.6560    0.0000 O   0  0
    9.0885   -4.4201    0.0000 N   0  0
    9.8021   -4.8341    0.0000 C   0  0
   10.5174   -4.4233    0.0000 C   0  0
   11.2310   -4.8374    0.0000 O   0  0
    4.7979   -6.0605    0.0000 N   0  0
    4.0844   -5.6464    0.0000 C   0  0
    4.0863   -4.8213    0.0000 N   0  0
    4.8016   -4.4105    0.0000 C   0  0
    5.5152   -4.8246    0.0000 C   0  0
    6.2306   -4.4137    0.0000 C   0  0
    6.9441   -4.8278    0.0000 C   0  0
    6.9423   -5.6528    0.0000 C   0  0
    6.2269   -6.0637    0.0000 C   0  0
    5.5134   -5.6496    0.0000 C   0  0
    7.6559   -6.0669    0.0000 O   0  0
    7.2386   -8.1606    0.0000 O   0  0
    6.9855   -7.3754    0.0000 C   0  0
    7.6540   -6.8919    0.0000 C   0  0  2  0  0  0
    8.3204   -7.3783    0.0000 C   0  0
    8.0637   -8.1624    0.0000 C   0  0
    4.8035   -3.5854    0.0000 N   0  0
    4.0899   -3.1713    0.0000 C   0  0
    3.3745   -3.5823    0.0000 C   0  0
    2.6610   -3.1681    0.0000 C   0  0
    2.6628   -2.3432    0.0000 C   0  0
    3.3783   -1.9322    0.0000 C   0  0
    4.0918   -2.3463    0.0000 C   0  0
    1.9493   -1.9290    0.0000 F   0  0
    1.9456   -3.5791    0.0000 Cl  0  0
   11.2292   -5.6619    0.0000 C   0  0
  1  2  1  0
  2  3  2  0
  2  4  1  0
  5  6  1  0
  6  7  1  0
  4  5  1  0
  8  9  1  0
  9 10  2  0
 10 11  1  0
 11 12  2  0
 12 13  1  0
 13 14  2  0
 14 15  1  0
 15 16  2  0
 16 17  1  0
  8 17  2  0
 12 17  1  0
 19 20  1  0
 20 21  1  0
 21 22  1  0
 22 23  1  0
 19 23  1  0
 21 18  1  1
 15 18  1  0
 25 26  1  0
 26 27  2  0
 27 28  1  0
 28 29  2  0
 29 30  1  0
 25 30  2  0
 28 31  1  0
 27 32  1  0
 24 25  1  0
 11 24  1  0
  1 14  1  0
  7 33  1  0
M  END
> <chembl_id>
CHEMBL3092323

$$$$

  SciTegic11131810132D

 34 37  0  0  0  0            999 V2000
    4.9395   -1.3433    0.0000 C   0  0
    3.8990   -0.7455    0.0000 C   0  0
    2.6003   -1.4977    0.0000 O   0  0
    1.2990   -0.7500    0.0000 C   0  0
    1.2990    0.7500    0.0000 C   0  0
    0.0000    1.5000    0.0000 C   0  0
    0.0000    3.0000    0.0000 N   0  0
   -1.2991    3.7500    0.0000 C   0  0
   -2.5981    3.0000    0.0000 N   0  0
   -2.5981    1.5000    0.0000 C   0  0
   -3.8994    0.7522    0.0000 N   0  0
   -5.1981    1.5045    0.0000 C   0  0
   -6.4998    0.7590    0.0000 C   0  0
   -7.7962    1.5135    0.0000 C   0  0
   -7.7910    3.0135    0.0000 C   0  0
   -6.4894    3.7590    0.0000 C   0  0
   -5.1930    3.0045    0.0000 C   0  0
   -6.4842    5.2598    0.0000 C   0  0
   -6.4801    6.4598    0.0000 C   0  0
   -1.2990    0.7500    0.0000 C   0  0
   -1.2990   -0.7500    0.0000 C   0  0
    0.0000   -1.5000    0.0000 C   0  0
   -0.0031   -3.0008    0.0000 N   0  0
   -1.3039   -3.7494    0.0000 C   0  0
   -2.3421   -3.1476    0.0000 O   0  0
   -1.3070   -5.2502    0.0000 C   0  0
   -2.6078   -5.9988    0.0000 C   0  0
   -2.6109   -7.4996    0.0000 C   0  0
   -3.9117   -8.2482    0.0000 N   0  0
   -3.9170   -9.7482    0.0000 C   0  0
   -5.2186  -10.4937    0.0000 C   0  0
   -6.5150   -9.7392    0.0000 C   0  0
   -6.5099   -8.2392    0.0000 C   0  0
   -5.2082   -7.4937    0.0000 C   0  0
  1  2  1  0
  2  3  1  0
  3  4  1  0
  4  5  2  0
  5  6  1  0
  6  7  2  0
  7  8  1  0
  8  9  2  0
  9 10  1  0
 10 11  1  0
 11 12  1  0
 12 13  2  0
 13 14  1  0
 14 15  2  0
 15 16  1  0
 16 17  2  0
 17 12  1  0
 16 18  1  0
 18 19  3  0
 10 20  2  0
 20  6  1  0
 20 21  1  0
 21 22  2  0
 22  4  1  0
 22 23  1  0
 23 24  1  0
 24 25  2  0
 24 26  1  0
 26 27  2  0
 27 28  1  0
 28 29  1  0
 29 30  1  0
 30 31  1  0
 31 32  1  0
 32 33  1  0
 33 34  1  0
 34 29  1  0
M  END
> <chembl_id>
CHEMBL3622673

$$$$

  SciTegic10011413212D

 49 54  0  0  0  0            999 V2000
   16.0590  -10.1241    0.0000 C   0  0
   16.0590  -10.9413    0.0000 C   0  0
   16.7643  -11.3458    0.0000 N   0  0
   17.4696  -10.9413    0.0000 C   0  0
   17.4696  -10.1241    0.0000 C   0  0
   16.7643   -9.7114    0.0000 N   0  0
   16.7643  -12.1629    0.0000 C   0  0
   16.7648   -8.8950    0.0000 C   0  0
   17.4741   -8.4870    0.0000 C   0  0
   17.4744   -7.6706    0.0000 C   0  0
   16.7662   -7.2612    0.0000 C   0  0
   16.0561   -7.6742    0.0000 C   0  0
   16.0593   -8.4892    0.0000 C   0  0
   15.3470   -7.2681    0.0000 O   0  0
   14.6407   -7.6792    0.0000 C   0  0
   16.7651   -6.4440    0.0000 N   0  0
   17.4723   -6.0344    0.0000 C   0  0
   18.1788   -6.4463    0.0000 N   0  0
   18.1717   -4.8119    0.0000 C   0  0
   17.4679   -5.2231    0.0000 N   0  0
   18.8899   -6.0359    0.0000 C   0  0
   18.8849   -5.2194    0.0000 C   0  0
   19.5228   -4.7006    0.0000 C   0  0
   19.5371   -6.5431    0.0000 N   0  0
   20.3364   -6.3525    0.0000 C   0  0
   20.3211   -4.8720    0.0000 N   0  0
   20.6836   -5.6082    0.0000 C   0  0
   19.3321   -3.9060    0.0000 O   0  0
   20.8529   -6.9858    0.0000 O   0  0
   19.3646   -7.3375    0.0000 C   0  0
   18.5845   -7.5845    0.0000 C   0  0
   18.4098   -8.3820    0.0000 C   0  0
   19.0142   -8.9333    0.0000 C   0  0
   19.7961   -8.6816    0.0000 C   0  0
   19.9671   -7.8846    0.0000 C   0  0
   20.4021   -9.2298    0.0000 N   0  0
   20.2303  -10.0287    0.0000 C   0  0
   20.8363  -10.5769    0.0000 C   0  0
   19.4525  -10.2794    0.0000 O   0  0
   20.6646  -11.3759    0.0000 C   0  0
   20.8236   -4.2276    0.0000 C   0  0
   21.5008   -5.5996    0.0000 C   0  0
   21.9019   -4.8876    0.0000 C   0  0
   22.7233   -4.8804    0.0000 C   0  0
   23.1243   -4.1692    0.0000 C   0  0
   22.7082   -3.4649    0.0000 C   0  0
   21.8869   -3.4762    0.0000 C   0  0
   21.4895   -4.1879    0.0000 C   0  0
   23.1084   -2.7524    0.0000 Cl  0  0
  1  2  1  0
  1  6  1  0
  2  3  1  0
  3  4  1  0
  4  5  1  0
  5  6  1  0
  3  7  1  0
  8  9  2  0
  9 10  1  0
 10 11  2  0
 11 12  1  0
 12 13  2  0
 13  8  1  0
  6  8  1  0
 12 14  1  0
 14 15  1  0
 11 16  1  0
 16 17  1  0
 17 18  2  0
 18 21  1  0
 22 19  1  0
 19 20  2  0
 20 17  1  0
 21 22  2  0
 22 23  1  0
 21 24  1  0
 23 26  1  0
 24 25  1  0
 25 27  1  0
 26 27  1  0
 23 28  2  0
 25 29  2  0
 30 31  2  0
 31 32  1  0
 32 33  2  0
 33 34  1  0
 34 35  2  0
 35 30  1  0
 24 30  1  0
 34 36  1  0
 36 37  1  0
 37 38  1  0
 37 39  2  0
 38 40  2  0
 26 41  1  0
 27 42  1  0
 42 43  1  0
 43 44  2  0
 44 45  1  0
 45 46  2  0
 46 47  1  0
 47 48  2  0
 48 43  1  0
 46 49  1  0
M  END
> <chembl_id>
CHEMBL3219135

$$$$

  SciTegic04301217312D

 32 35  0  0  0  0            999 V2000
   -5.5889    1.9000    0.0000 C   0  0
   -5.5901    1.0727    0.0000 C   0  0
   -4.8753    0.6598    0.0000 C   0  0
   -4.1588    1.0731    0.0000 C   0  0
   -4.1617    1.9037    0.0000 C   0  0
   -4.8771    2.3128    0.0000 C   0  0
   -3.4488    2.3189    0.0000 C   0  0
   -2.7331    1.9090    0.0000 C   0  0
   -2.7288    1.0801    0.0000 C   0  0
   -1.9427    0.8300    0.0000 C   0  0
   -1.4618    1.5004    0.0000 C   0  0
   -1.9509    2.1648    0.0000 S   0  0
   -3.3935    0.5914    0.0000 C   0  0
   -1.6829    0.0469    0.0000 C   0  0
   -2.2312   -0.5695    0.0000 O   0  0
   -0.8749   -0.1196    0.0000 N   0  0
   -0.6368    1.5055    0.0000 N   0  0
   -0.2288    2.2226    0.0000 C   0  0
    0.5962    2.2277    0.0000 C   0  0
    1.0043    2.9447    0.0000 O   0  0
    1.0131    1.5158    0.0000 C   0  0
    1.8381    1.5209    0.0000 O   0  0
    2.2551    0.8090    0.0000 C   0  0
    1.8450    0.0959    0.0000 C   0  0
    2.2612   -0.6155    0.0000 C   0  0
    3.0764    0.8196    0.0000 C   0  0
    3.4950    0.1112    0.0000 C   0  0
    3.0853   -0.6096    0.0000 C   0  0
    3.5046   -1.3227    0.0000 C   0  0
    4.3334   -1.3162    0.0000 C   0  0
    4.7411   -0.5906    0.0000 C   0  0
    4.3195    0.1194    0.0000 C   0  0
  3  4  2  0
 14 16  1  0
  7  8  1  0
 11 17  1  0
  8  9  2  0
 17 18  1  0
 18 19  1  0
  4  5  1  0
 19 20  2  0
  2  3  1  0
 19 21  1  0
  5  6  2  0
 21 22  1  0
  9 10  1  0
 22 23  1  0
 10 11  2  0
 23 24  2  0
 11 12  1  0
 24 25  1  0
 25 28  2  0
 12  8  1  0
 27 26  2  0
 26 23  1  0
  6  1  1  0
  9 13  1  0
 27 28  1  0
  1  2  2  0
 28 29  1  0
 10 14  1  0
 29 30  2  0
  5  7  1  0
 30 31  1  0
 14 15  2  0
 31 32  2  0
 32 27  1  0
M  END
> <chembl_id>
CHEMBL1944924

$$$$

  SciTegic04201609482D

 30 33  0  0  0  0            999 V2000
   -1.0028    1.5132    0.0000 C   0  0
   -2.3155    0.7475    0.0000 N   0  0
   -2.3155   -0.7475    0.0000 C   0  0
   -1.0028   -1.5132    0.0000 N   0  0
    0.2917    0.7475    0.0000 C   0  0
    0.2917   -0.7475    0.0000 C   0  0
    1.7138   -1.2033    0.0000 N   0  0
    2.5889    0.0182    0.0000 C   0  0
    1.7138    1.2033    0.0000 N   0  0
    2.1855   -2.6254    0.0000 C   0  0
    3.3606   -2.8684    0.0000 C   0  0
    1.3877   -3.5218    0.0000 C   0  0
   -0.9971    3.0138    0.0000 N   0  0
   -2.2935    3.7700    0.0000 C   0  0
   -2.4279    5.2511    0.0000 C   0  0
   -3.8944    5.5664    0.0000 N   0  0
   -4.6474    4.2692    0.0000 N   0  0
   -3.6464    3.1521    0.0000 C   0  0
   -4.3799    6.6638    0.0000 C   0  0
   -3.6168   -1.4950    0.0000 N   0  0
   -3.7580   -2.9756    0.0000 C   0  0
   -5.2259   -3.2843    0.0000 C   0  0  2  0  0  0
   -5.9730   -1.9836    0.0000 C   0  0  1  0  0  0
   -4.9669   -0.8711    0.0000 C   0  0
   -7.1662   -1.8556    0.0000 F   0  0
   -5.8354   -4.6530    0.0000 N   0  0
   -4.9542   -5.8678    0.0000 C   0  0
   -5.5648   -7.2388    0.0000 C   0  0
   -3.7607   -5.7429    0.0000 O   0  0
   -4.8601   -8.2102    0.0000 C   0  0
  5  1  2  0
  1  2  1  0
  2  3  2  0
  3  4  1  0
  4  6  2  0
  5  6  1  0
  6  7  1  0
  7  8  1  0
  8  9  2  0
  9  5  1  0
  7 10  1  0
 10 11  1  0
 10 12  1  0
  1 13  1  0
 13 14  1  0
 14 15  2  0
 15 16  1  0
 16 17  1  0
 17 18  2  0
 18 14  1  0
 16 19  1  0
  3 20  1  0
 20 21  1  0
 21 22  1  0
 22 23  1  0
 23 24  1  0
 24 20  1  0
 23 25  1  6
 22 26  1  1
 26 27  1  0
 27 28  1  0
 27 29  2  0
 28 30  2  0
M  END
> <chembl_id>
CHEMBL3608429

$$$$

  SciTegic04201614442D

 43 48  0  0  0  0            999 V2000
    4.6043   -0.6682    0.0000 N   0  0
    4.6043    0.8382    0.0000 C   0  0
    3.3044    1.5915    0.0000 N   0  0
    3.3044   -1.4214    0.0000 C   0  0
    1.9924   -0.6682    0.0000 C   0  0
    1.9924    0.8382    0.0000 C   0  0
    0.7168    1.5915    0.0000 N   0  0
    0.7168   -1.4214    0.0000 C   0  0
   -0.5831   -0.6682    0.0000 N   0  0
   -0.5831    0.8382    0.0000 C   0  0
   -2.0045    1.2999    0.0000 N   0  0
   -2.8792    0.0850    0.0000 C   0  0
   -2.0045   -1.1298    0.0000 C   0  0
    0.7217   -2.6214    0.0000 O   0  0
    0.7229    3.0922    0.0000 C   0  0
    2.0207    3.8440    0.0000 C   0  0
    2.0185    5.3440    0.0000 C   0  0
    0.7184    6.0921    0.0000 C   0  0
   -0.5795    5.3402    0.0000 C   0  0
   -0.5774    3.8402    0.0000 C   0  0
   -1.8819    6.0861    0.0000 N   0  0
   -3.1795    5.3320    0.0000 C   0  0
   -4.4819    6.0779    0.0000 C   0  0
   -3.1757    4.1320    0.0000 O   0  0
   -5.5194    5.4749    0.0000 C   0  0
    5.9025    1.5913    0.0000 N   0  0
    5.9004    3.0921    0.0000 C   0  0
    7.1969    3.8466    0.0000 C   0  0
    7.1918    5.3466    0.0000 C   0  0
    5.8902    6.0922    0.0000 C   0  0
    4.5937    5.3377    0.0000 C   0  0
    4.5988    3.8377    0.0000 C   0  0
    5.8851    7.5929    0.0000 N   0  0
    7.1803    8.3495    0.0000 C   0  0
    7.1728    9.8495    0.0000 C   0  0
    5.8701   10.5930    0.0000 C   0  0
    4.5748    9.8365    0.0000 C   0  0
    4.5823    8.3365    0.0000 C   0  0
    5.8595   12.0938    0.0000 N   0  0
    4.8164   12.6871    0.0000 C   0  0
    6.8946   12.7008    0.0000 C   0  0
    8.5008    3.1034    0.0000 O   0  0
    9.5371    3.7084    0.0000 C   0  0
  1  2  2  0
  2  3  1  0
  3  6  2  0
  5  4  2  0
  4  1  1  0
  5  6  1  0
  5  8  1  0
  6  7  1  0
  7 10  1  0
  9  8  1  0
  9 10  1  0
 10 11  2  0
 11 12  1  0
 12 13  2  0
 13  9  1  0
  8 14  2  0
 15 16  2  0
 16 17  1  0
 17 18  2  0
 18 19  1  0
 19 20  2  0
 20 15  1  0
  7 15  1  0
 19 21  1  0
 21 22  1  0
 22 23  1  0
 22 24  2  0
 23 25  2  0
  2 26  1  0
 26 27  1  0
 27 28  2  0
 28 29  1  0
 29 30  2  0
 30 31  1  0
 31 32  2  0
 32 27  1  0
 33 34  1  0
 33 38  1  0
 34 35  1  0
 35 36  1  0
 36 37  1  0
 37 38  1  0
 30 33  1  0
 36 39  1  0
 39 40  1  0
 39 41  1  0
 42 43  1  0
 28 42  1  0
M  END
> <chembl_id>
CHEMBL3633349

$$$$

  SciTegic12171313022D

 30 33  0  0  0  0            999 V2000
   26.0992   -4.6059    0.0000 C   0  0
   26.0980   -5.4255    0.0000 C   0  0
   26.8061   -5.8345    0.0000 N   0  0
   27.5157   -5.4250    0.0000 C   0  0
   27.5129   -4.6024    0.0000 N   0  0
   26.8043   -4.1971    0.0000 C   0  0
   25.3914   -4.1975    0.0000 Cl  0  0
   26.8024   -3.3800    0.0000 C   0  0
   27.4620   -2.8977    0.0000 C   0  0
   27.2072   -2.1212    0.0000 N   0  0
   26.1399   -2.9016    0.0000 C   0  0
   26.3928   -2.1245    0.0000 N   0  0
   25.8468   -1.5190    0.0000 C   0  0
   25.0478   -1.6893    0.0000 C   0  0
   24.7976   -2.4706    0.0000 C   0  0
   25.3453   -3.0728    0.0000 C   0  0
   28.2241   -5.8325    0.0000 N   0  0
   28.9312   -5.4228    0.0000 C   0  0
   29.6362   -5.8307    0.0000 C   0  0
   30.3428   -5.4217    0.0000 C   0  0
   28.9249   -4.6077    0.0000 C   0  0
   29.6363   -6.6479    0.0000 O   0  0
   28.9286   -7.0566    0.0000 C   0  0
   29.6247   -4.1955    0.0000 C   0  0
   30.3380   -4.6044    0.0000 C   0  0
   29.6199   -3.3783    0.0000 N   0  0
   30.3252   -2.9656    0.0000 C   0  0
   30.3205   -2.1484    0.0000 C   0  0
   31.0353   -3.3700    0.0000 O   0  0
   31.0258   -1.7357    0.0000 C   0  0
  1  2  2  0
  2  3  1  0
  3  4  2  0
  4  5  1  0
  5  6  2  0
  6  1  1  0
  1  7  1  0
  8  9  1  0
  9 10  2  0
 10 12  1  0
 11  8  2  0
  6  8  1  0
 11 12  1  0
 12 13  1  0
 13 14  2  0
 14 15  1  0
 15 16  2  0
 16 11  1  0
  4 17  1  0
 17 18  1  0
 18 19  2  0
 19 20  1  0
 20 25  2  0
 24 21  2  0
 21 18  1  0
 19 22  1  0
 22 23  1  0
 24 25  1  0
 24 26  1  0
 26 27  1  0
 27 28  1  0
 27 29  2  0
 28 30  2  0
M  END
> <chembl_id>
CHEMBL2426286

$$$$

  SciTegic05221516342D

 27 30  0  0  0  0            999 V2000
   30.3476  -28.6207    0.0000 N   0  0
   28.3046  -27.9117    0.0000 C   0  0
   29.1218  -27.9117    0.0000 N   0  0
   29.5304  -28.6207    0.0000 C   0  0
   29.1218  -29.3257    0.0000 C   0  0
   28.3046  -29.3257    0.0000 C   0  0
   27.8960  -28.6207    0.0000 N   0  0
   27.8960  -27.2026    0.0000 N   0  0
   27.0788  -27.2026    0.0000 C   0  0
   26.6702  -26.4935    0.0000 C   0  0
   27.0788  -25.7885    0.0000 C   0  0
   27.8960  -25.7885    0.0000 C   0  0
   28.3046  -26.4935    0.0000 C   0  0
   26.6702  -25.0794    0.0000 O   0  0
   25.8530  -25.0794    0.0000 C   0  0
   30.7562  -26.4935    0.0000 C   0  0
   31.5734  -26.4935    0.0000 C   0  0
   31.9820  -27.2026    0.0000 C   0  0
   31.5734  -27.9117    0.0000 C   0  0
   30.7562  -27.9117    0.0000 C   0  0
   30.3476  -27.2026    0.0000 N   0  0
   32.7804  -27.0318    0.0000 N   0  0
   32.1212  -25.8870    0.0000 C   0  0
   32.8644  -26.2214    0.0000 C   0  0
   33.3868  -27.5797    0.0000 C   0  0
   34.1742  -27.3706    0.0000 C   0  0
   33.2161  -28.3780    0.0000 C   0  0
  2  3  1  0
  3  4  2  0
  4  5  1  0
  5  6  2  0
  6  7  1  0
  2  7  2  0
  8  9  1  0
  9 10  1  0
 10 11  1  0
 11 12  1  0
 12 13  1  0
  8 13  1  0
 14 15  1  0
 11 14  1  0
  2  8  1  0
  1  4  1  0
 16 17  1  0
 17 18  2  0
 18 19  1  0
 19 20  2  0
 20 21  1  0
 16 21  2  0
 23 24  2  0
 22 24  1  0
 17 23  1  0
 18 22  1  0
 25 26  1  0
 25 27  1  0
 22 25  1  0
  1 20  1  0
M  END
> <chembl_id>
CHEMBL3354188

$$$$

  SciTegic04191617032D

 32 35  0  0  0  0            999 V2000
    1.2990   -0.7500    0.0000 C   0  0
    1.2990    0.7500    0.0000 C   0  0
    0.0000    1.5000    0.0000 N   0  0
   -1.2990    0.7500    0.0000 C   0  0
   -1.2990   -0.7500    0.0000 N   0  0
    0.0000   -1.5000    0.0000 C   0  0
    0.0031   -3.0008    0.0000 N   0  0
    1.3039   -3.7494    0.0000 C   0  0
    1.4469   -5.2297    0.0000 C   0  0
    2.9152   -5.5365    0.0000 C   0  0
    3.6607   -4.2349    0.0000 N   0  0
    2.6532   -3.1236    0.0000 N   0  0
    3.4071   -6.6311    0.0000 C   0  0
   -2.6003    1.4977    0.0000 O   0  0
   -3.8990    0.7455    0.0000 C   0  0
   -5.2007    1.4909    0.0000 C   0  0
   -6.4972    0.7364    0.0000 C   0  0
   -6.4920   -0.7636    0.0000 C   0  0
   -5.1903   -1.5091    0.0000 C   0  0
   -3.8939   -0.7546    0.0000 C   0  0
    2.5987    1.5004    0.0000 N   0  0
    3.8991    0.7525    0.0000 C   0  0
    5.1969    1.5046    0.0000 C   0  0
    5.1945    3.0046    0.0000 N   0  0
    3.8943    3.7525    0.0000 C   0  0
    2.5964    3.0004    0.0000 C   0  0
    6.2328    3.6062    0.0000 C   0  0
   -5.1821   -3.0099    0.0000 N   0  0
   -3.8787   -3.7540    0.0000 C   0  0
   -3.8704   -5.2548    0.0000 C   0  0
   -2.8426   -3.1486    0.0000 O   0  0
   -2.8282   -5.8497    0.0000 C   0  0
  1  2  2  0
  2  3  1  0
  3  4  2  0
  4  5  1  0
  5  6  2  0
  6  1  1  0
  6  7  1  0
  7  8  1  0
  8  9  1  0
  9 10  2  0
 10 11  1  0
 11 12  1  0
 12  8  2  0
 10 13  1  0
  4 14  1  0
 14 15  1  0
 15 16  2  0
 16 17  1  0
 17 18  2  0
 18 19  1  0
 19 20  2  0
 20 15  1  0
  2 21  1  0
 21 22  1  0
 21 26  1  0
 22 23  1  0
 23 24  1  0
 24 25  1  0
 25 26  1  0
 24 27  1  0
 19 28  1  0
 28 29  1  0
 29 30  1  0
 29 31  2  0
 30 32  1  0
M  END
> <chembl_id>
CHEMBL3604924

$$$$

  SciTegic01161211252D

 30 34  0  0  0  0            999 V2000
    4.1389   -3.7801    0.0000 C   0  0
    4.1378   -4.6081    0.0000 C   0  0
    4.8532   -5.0214    0.0000 C   0  0
    5.5703   -4.6077    0.0000 C   0  0
    5.5675   -3.7764    0.0000 C   0  0
    4.8514   -3.3669    0.0000 C   0  0
    6.2866   -5.0170    0.0000 C   0  0
    6.3738   -5.8385    0.0000 C   0  0
    7.0403   -4.6800    0.0000 N   0  0
    7.5939   -5.2926    0.0000 C   0  0
    7.1843   -6.0076    0.0000 N   0  0
    7.7377   -6.6181    0.0000 C   0  0
    8.4894   -6.2804    0.0000 C   0  0
    8.4004   -5.4612    0.0000 S   0  0
    5.6653   -6.2603    0.0000 C   0  0
    4.9448   -5.8547    0.0000 C   0  0
    4.2354   -6.2757    0.0000 C   0  0
    5.6770   -7.0825    0.0000 N   0  0
    4.9705   -7.5059    0.0000 C   0  0
    4.2414   -7.1030    0.0000 N   0  0
    4.9850   -8.3315    0.0000 N   0  0
    4.2773   -8.7569    0.0000 C   0  0
    3.5598   -8.3540    0.0000 C   0  0
    2.8525   -8.7787    0.0000 C   0  0
    2.8666   -9.6052    0.0000 C   0  0
    3.5939  -10.0051    0.0000 C   0  0
    4.2982   -9.5782    0.0000 C   0  0
    4.8462   -2.5776    0.0000 N   0  3
    4.1631   -2.1859    0.0000 O   0  0
    5.5270   -2.1817    0.0000 O   0  5
  3  4  2  0
 15 16  2  0
 16 17  1  0
 17 20  2  0
  8 11  1  0
 19 18  2  0
 18 15  1  0
  8 15  1  0
 19 20  1  0
 10  9  2  0
  9  7  1  0
  4  7  1  0
 10 11  1  0
 19 21  1  0
  4  5  1  0
 21 22  1  0
  2  3  1  0
 22 23  2  0
  5  6  2  0
 23 24  1  0
  6  1  1  0
 24 25  2  0
  7  8  2  0
 25 26  1  0
 11 12  1  0
 26 27  2  0
 27 22  1  0
 12 13  2  0
 13 14  1  0
 14 10  1  0
  1  2  2  0
 28 29  2  0
 28 30  1  0
  6 28  1  0
M  CHG  2  28   1  30  -1
M  END
> <chembl_id>
CHEMBL1093235

$$$$

  SciTegic12091611202D

 26 28  0  0  0  0            999 V2000
   -7.5133    0.6990    0.0000 C   0  0
   -6.2219    1.4621    0.0000 N   0  0
   -4.9153    0.7255    0.0000 C   0  0
   -4.9001   -0.7745    0.0000 C   0  0
   -6.1914   -1.5377    0.0000 C   0  0
   -7.4980   -0.8010    0.0000 N   0  0
   -3.6217    1.4865    0.0000 N   0  0
   -1.0028   -1.5132    0.0000 C   0  0
    0.2917   -0.7475    0.0000 C   0  0
    0.2917    0.7475    0.0000 C   0  0
   -1.0028    1.5132    0.0000 C   0  0
   -2.3155    0.7475    0.0000 C   0  0
   -2.3155   -0.7475    0.0000 N   0  0
    2.5889    0.0182    0.0000 C   0  0
    1.7138   -1.2033    0.0000 N   0  0
    1.7138    1.2033    0.0000 N   0  0
    3.7889    0.0269    0.0000 C   0  0
    2.1812    2.6271    0.0000 C   0  0
    3.3556    2.8737    0.0000 C   0  0
    1.3808    3.5211    0.0000 C   0  0
   -8.8221    1.4334    0.0000 C   0  0
  -10.1131    0.6680    0.0000 C   0  0
  -11.4219    1.4024    0.0000 C   0  0
  -12.4541    0.7904    0.0000 O   0  0
  -11.4362    2.6023    0.0000 C   0  0
  -12.4681    1.9902    0.0000 C   0  0
  1  2  1  0
  2  3  2  0
  3  4  1  0
  4  5  2  0
  5  6  1  0
  1  6  2  0
  3  7  1  0
  8  9  1  0
  9 10  2  0
 10 11  1  0
 11 12  2  0
 12 13  1  0
  8 13  2  0
 14 15  2  0
 14 16  1  0
  9 15  1  0
 10 16  1  0
 14 17  1  0
 18 19  1  0
 18 20  1  0
 16 18  1  0
  7 12  1  0
  1 21  1  0
 21 22  2  0
 22 23  1  0
 23 24  1  0
 23 25  1  0
 23 26  1  0
M  END
> <chembl_id>
CHEMBL3735157

$$$$

  Mrv0541 04051115152D          

 33 36  0  0  0  0            999 V2000
   -0.0454   -1.7244    0.0000 C   0  0  0  0  0  0  0  0  0  0  0  0
   -0.8704   -1.7244    0.0000 C   0  0  0  0  0  0  0  0  0  0  0  0
   -1.3553   -2.3918    0.0000 C   0  0  0  0  0  0  0  0  0  0  0  0
    0.9711    4.4952    0.0000 N   0  0  0  0  0  0  0  0  0  0  0  0
   -2.4745   -5.1478    0.0000 C   0  0  0  0  0  0  0  0  0  0  0  0
   -2.8101   -4.3941    0.0000 C   0  0  0  0  0  0  0  0  0  0  0  0
   -2.3251   -3.7267    0.0000 C   0  0  0  0  0  0  0  0  0  0  0  0
   -2.6607   -2.9730    0.0000 C   0  0  0  0  0  0  0  0  0  0  0  0
    0.2566    0.7827    0.0000 C   0  0  0  0  0  0  0  0  0  0  0  0
    0.2566    1.6077    0.0000 C   0  0  0  0  0  0  0  0  0  0  0  0
    0.9711    2.0202    0.0000 C   0  0  0  0  0  0  0  0  0  0  0  0
    1.6855    0.7827    0.0000 C   0  0  0  0  0  0  0  0  0  0  0  0
    2.4000    0.3702    0.0000 C   0  0  0  0  0  0  0  0  0  0  0  0
    0.2566    3.2577    0.0000 C   0  0  0  0  0  0  0  0  0  0  0  0
    1.6855    3.2577    0.0000 C   0  0  0  0  0  0  0  0  0  0  0  0
    0.9711    5.3202    0.0000 C   0  0  0  0  0  0  0  0  0  0  0  0
    1.6855    5.7327    0.0000 C   0  0  0  0  0  0  0  0  0  0  0  0
   -0.4579    0.3702    0.0000 N   0  0  0  0  0  0  0  0  0  0  0  0
   -0.4579   -0.4548    0.0000 C   0  0  0  0  0  0  0  0  0  0  0  0
    0.2096   -0.9397    0.0000 N   0  0  0  0  0  0  0  0  0  0  0  0
   -1.1253   -0.9397    0.0000 S   0  0  0  0  0  0  0  0  0  0  0  0
   -1.0197   -3.1455    0.0000 N   0  0  0  0  0  0  0  0  0  0  0  0
   -1.5047   -3.8129    0.0000 C   0  0  0  0  0  0  0  0  0  0  0  0
   -1.1691   -4.5666    0.0000 C   0  0  0  0  0  0  0  0  0  0  0  0
   -1.6540   -5.2340    0.0000 C   0  0  0  0  0  0  0  0  0  0  0  0
   -0.3486   -4.6528    0.0000 Cl  0  0  0  0  0  0  0  0  0  0  0  0
   -2.1758   -2.3056    0.0000 O   0  0  0  0  0  0  0  0  0  0  0  0
    1.6855    1.6077    0.0000 N   0  0  0  0  0  0  0  0  0  0  0  0
    0.9711    0.3702    0.0000 N   0  0  0  0  0  0  0  0  0  0  0  0
    0.9711    2.8452    0.0000 N   0  0  0  0  0  0  0  0  0  0  0  0
    0.2566    4.0827    0.0000 C   0  0  0  0  0  0  0  0  0  0  0  0
    1.6855    4.0827    0.0000 C   0  0  0  0  0  0  0  0  0  0  0  0
    1.6855    6.5577    0.0000 O   0  0  0  0  0  0  0  0  0  0  0  0
  1  2  2  0  0  0  0
  1 20  1  0  0  0  0
  2  3  1  0  0  0  0
  2 21  1  0  0  0  0
  3 22  1  0  0  0  0
  3 27  2  0  0  0  0
 16  4  1  0  0  0  0
 31  4  1  0  0  0  0
 32  4  1  0  0  0  0
  5  6  2  0  0  0  0
 25  5  1  0  0  0  0
  6  7  1  0  0  0  0
  8  7  1  0  0  0  0
 23  7  2  0  0  0  0
  9 10  1  0  0  0  0
  9 18  1  0  0  0  0
  9 29  2  0  0  0  0
 10 11  2  0  0  0  0
 11 28  1  0  0  0  0
 11 30  1  0  0  0  0
 12 13  1  0  0  0  0
 12 28  2  0  0  0  0
 12 29  1  0  0  0  0
 14 30  1  0  0  0  0
 14 31  1  0  0  0  0
 15 30  1  0  0  0  0
 32 15  1  0  0  0  0
 16 17  1  0  0  0  0
 17 33  1  0  0  0  0
 19 18  1  0  0  0  0
 19 20  2  0  0  0  0
 19 21  1  0  0  0  0
 23 22  1  0  0  0  0
 23 24  1  0  0  0  0
 24 25  2  0  0  0  0
 24 26  1  0  0  0  0
M  END
> <chembl_id>
CHEMBL1421

$$$$

  SciTegic04091414352D

 39 44  0  0  0  0            999 V2000
   13.6554   -7.2830    0.0000 N   0  0
   13.6664   -6.4654    0.0000 C   0  0
   14.3800   -6.0662    0.0000 C   0  0
   15.0825   -6.4845    0.0000 C   0  0
   15.0715   -7.3021    0.0000 C   0  0
   14.3579   -7.7014    0.0000 C   0  0
   12.9418   -7.6823    0.0000 C   0  0
   12.9308   -8.4999    0.0000 O   0  0
   12.2393   -7.2639    0.0000 N   0  0
   15.7961   -6.0853    0.0000 N   0  0
   15.8925   -5.2733    0.0000 C   0  0
   16.6945   -5.1141    0.0000 C   0  0
   17.0938   -5.8277    0.0000 C   0  0
   16.5385   -6.4279    0.0000 C   0  0
    9.3850   -8.8609    0.0000 N   0  0
    8.6824   -8.4425    0.0000 C   0  0
    8.6935   -7.6250    0.0000 N   0  0
    9.4070   -7.2257    0.0000 C   0  0
   10.1096   -7.6441    0.0000 C   0  0
   10.8232   -7.2448    0.0000 C   0  0
   11.5257   -7.6632    0.0000 C   0  0
   11.5147   -8.4808    0.0000 C   0  0
   10.8011   -8.8800    0.0000 C   0  0
   10.0985   -8.4617    0.0000 C   0  0
   12.2172   -8.8991    0.0000 O   0  0
   11.7804  -10.9693    0.0000 O   0  0
   11.5382  -10.1883    0.0000 C   0  0
   12.2062   -9.7167    0.0000 C   0  0  2  0  0  0
   12.8611  -10.2062    0.0000 C   0  0
   12.5980  -10.9804    0.0000 C   0  0
    9.4181   -6.4081    0.0000 N   0  0
    8.7155   -5.9898    0.0000 C   0  0
    8.0020   -6.3890    0.0000 C   0  0
    7.2994   -5.9707    0.0000 C   0  0
    7.3104   -5.1531    0.0000 C   0  0
    8.0240   -4.7538    0.0000 C   0  0
    8.7266   -5.1722    0.0000 C   0  0
    6.6079   -4.7347    0.0000 F   0  0
    6.5858   -6.3699    0.0000 Cl  0  0
  1  2  1  0
  2  3  1  0
  3  4  1  0
  4  5  1  0
  5  6  1  0
  1  6  1  0
  7  8  2  0
  7  9  1  0
  1  7  1  0
 10 11  1  0
 11 12  1  0
 12 13  1  0
 13 14  1  0
 10 14  1  0
  4 10  1  0
 15 16  1  0
 16 17  2  0
 17 18  1  0
 18 19  2  0
 19 20  1  0
 20 21  2  0
 21 22  1  0
 22 23  2  0
 23 24  1  0
 15 24  2  0
 19 24  1  0
 26 27  1  0
 27 28  1  0
 28 29  1  0
 29 30  1  0
 26 30  1  0
 28 25  1  1
 22 25  1  0
 32 33  1  0
 33 34  2  0
 34 35  1  0
 35 36  2  0
 36 37  1  0
 32 37  2  0
 35 38  1  0
 34 39  1  0
 31 32  1  0
 18 31  1  0
  9 21  1  0
M  END
> <chembl_id>
CHEMBL3092301

$$$$

  SciTegic06051313552D

 28 32  0  0  0  0            999 V2000
    9.6522  -32.0149    0.0000 C   0  0
    9.6510  -32.8344    0.0000 C   0  0
   10.3591  -33.2434    0.0000 C   0  0
   11.0687  -32.8339    0.0000 C   0  0
   11.0659  -32.0112    0.0000 C   0  0
   10.3573  -31.6060    0.0000 C   0  0
   11.7466  -31.5591    0.0000 C   0  0
   12.5139  -31.8403    0.0000 C   0  0
   13.0184  -31.1975    0.0000 C   0  0
   12.5625  -30.5195    0.0000 N   0  0
   11.7769  -30.7425    0.0000 N   0  0
   12.9680  -29.8101    0.0000 C   0  0
   13.8329  -31.2276    0.0000 C   0  0
   15.0789  -30.5643    0.0000 C   0  0
   14.2643  -30.5375    0.0000 C   0  0
   15.4656  -31.2890    0.0000 C   0  0
   13.7831  -29.8096    0.0000 C   0  0
   14.1886  -29.1010    0.0000 C   0  0
   13.7769  -28.3941    0.0000 C   0  0
   12.9555  -28.4002    0.0000 C   0  0
   12.5537  -29.1094    0.0000 C   0  0
   15.0299  -31.9795    0.0000 C   0  0
   14.2149  -31.9485    0.0000 C   0  0
   13.7824  -32.6378    0.0000 C   0  0
   14.1638  -33.3585    0.0000 C   0  0
   14.9821  -33.3856    0.0000 C   0  0
   15.4109  -32.6956    0.0000 C   0  0
    8.9430  -33.2424    0.0000 C   0  0
  1  2  2  0
  2  3  1  0
  3  4  2  0
  4  5  1  0
  5  6  2  0
  6  1  1  0
  7  8  1  0
  8  9  1  0
  9 10  1  0
 10 11  1  0
 11  7  2  0
  5  7  1  0
 10 12  1  0
 13 23  2  0
 16 14  1  0
 14 15  2  0
 15 13  1  0
  9 13  1  0
 16 22  2  0
 12 17  2  0
 17 18  1  0
 18 19  2  0
 19 20  1  0
 20 21  2  0
 21 12  1  0
 22 23  1  0
 23 24  1  0
 24 25  2  0
 25 26  1  0
 26 27  2  0
 27 22  1  0
  2 28  1  0
M  END
> <chembl_id>
CHEMBL2325093

$$$$

  SciTegic05061409512D

 22 24  0  0  0  0            999 V2000
    5.6829  -21.7573    0.0000 N   0  0
    6.3926  -21.3479    0.0000 C   0  0
    6.3898  -20.5252    0.0000 N   0  0
    5.6811  -20.1199    0.0000 C   0  0
    4.9749  -21.3483    0.0000 C   0  0
    4.9772  -20.5264    0.0000 C   0  0
    4.2677  -20.1153    0.0000 C   0  0
    3.5554  -20.5249    0.0000 C   0  0
    3.5571  -21.3500    0.0000 C   0  0
    4.2672  -21.7574    0.0000 C   0  0
    5.6794  -19.3027    0.0000 N   0  0
    2.8476  -20.1165    0.0000 N   0  0
    2.1400  -20.5252    0.0000 C   0  0
    1.4322  -20.1167    0.0000 C   0  0
    2.1401  -21.3424    0.0000 O   0  0
    0.7246  -20.5254    0.0000 C   0  0
    6.3863  -18.8927    0.0000 C   0  0
    7.0952  -19.3049    0.0000 C   0  0
    7.8016  -18.8955    0.0000 C   0  0
    7.8003  -18.0774    0.0000 C   0  0
    7.0868  -17.6705    0.0000 C   0  0
    6.3833  -18.0822    0.0000 C   0  0
  5  1  1  0
  1  2  2  0
  2  3  1  0
  3  4  2  0
  4  6  1  0
  5  6  1  0
  6  7  2  0
  7  8  1  0
  8  9  2  0
  9 10  1  0
 10  5  2  0
  4 11  1  0
  8 12  1  0
 12 13  1  0
 13 14  1  0
 13 15  2  0
 14 16  2  0
 11 17  1  0
 17 18  1  0
 18 19  1  0
 19 20  1  0
 20 21  1  0
 21 22  1  0
 22 17  1  0
M  END
> <chembl_id>
CHEMBL3133894

$$$$

  SciTegic09081514162D

 44 48  0  0  0  0            999 V2000
    1.2990   -0.7500    0.0000 N   0  0
    1.2990    0.7500    0.0000 C   0  0
    0.0000    1.5000    0.0000 N   0  0
   -1.2990    0.7500    0.0000 C   0  0
   -1.2990   -0.7500    0.0000 C   0  0
    0.0000   -1.5000    0.0000 C   0  0
   -2.5973    1.5031    0.0000 O   0  0
    2.5972    1.5031    0.0000 N   0  0
    2.5951    3.0039    0.0000 C   0  0
   -3.8990    0.7562    0.0000 C   0  0
   -5.1976    1.5069    0.0000 C   0  0
   -6.4972    0.7578    0.0000 C   0  0
   -6.4981   -0.7422    0.0000 C   0  0
   -5.1996   -1.4931    0.0000 C   0  0
   -3.9001   -0.7439    0.0000 C   0  0
    3.8915    3.7585    0.0000 C   0  0
    3.8863    5.2585    0.0000 C   0  0
    2.5847    6.0040    0.0000 C   0  0
    1.2883    5.2495    0.0000 C   0  0
    1.2934    3.7495    0.0000 C   0  0
    2.5795    7.5047    0.0000 N   0  0
    3.8747    8.2614    0.0000 C   0  0
    3.8671    9.7614    0.0000 C   0  0
    2.5643   10.5048    0.0000 N   0  0
    1.2691    9.7483    0.0000 C   0  0
    1.2767    8.2483    0.0000 C   0  0
   -2.3383   -1.3500    0.0000 Cl  0  0
   -5.1975   -2.9939    0.0000 N   0  0
   -3.8972   -3.7433    0.0000 C   0  0
   -3.8950   -5.2441    0.0000 C   0  0
   -2.8586   -3.1422    0.0000 O   0  0
   -2.5947   -5.9935    0.0000 C   0  0
    2.5583   11.7048    0.0000 C   0  0
    5.1954    3.0153    0.0000 O   0  0
    6.2317    3.6204    0.0000 C   0  0
   -5.1940   -5.9960    0.0000 C   0  0
   -6.2326   -6.5971    0.0000 N   0  0
   -2.5926   -7.4944    0.0000 C   0  0
   -1.2941   -8.2453    0.0000 C   0  0
   -1.2950   -9.7453    0.0000 C   0  0
   -2.5945  -10.4944    0.0000 C   0  0
   -3.8931   -9.7436    0.0000 C   0  0
   -3.8921   -8.2436    0.0000 C   0  0
   -2.5953  -11.6944    0.0000 F   0  0
  1  2  2  0
  2  3  1  0
  3  4  2  0
  4  5  1  0
  5  6  2  0
  6  1  1  0
  4  7  1  0
  2  8  1  0
  8  9  1  0
  7 10  1  0
 10 11  2  0
 11 12  1  0
 12 13  2  0
 13 14  1  0
 14 15  2  0
 15 10  1  0
  9 16  2  0
 16 17  1  0
 17 18  2  0
 18 19  1  0
 19 20  2  0
 20  9  1  0
 21 22  1  0
 22 23  1  0
 23 24  1  0
 24 25  1  0
 25 26  1  0
 26 21  1  0
 18 21  1  0
  5 27  1  0
 14 28  1  0
 28 29  1  0
 29 30  1  0
 29 31  2  0
 30 32  2  0
 24 33  1  0
 16 34  1  0
 34 35  1  0
 30 36  1  0
 36 37  3  0
 32 38  1  0
 38 39  2  0
 39 40  1  0
 40 41  2  0
 41 42  1  0
 42 43  2  0
 43 38  1  0
 41 44  1  0
M  END
> <chembl_id>
CHEMBL3425655

$$$$

  SciTegic12201611512D

 29 32  0  0  0  0            999 V2000
   -2.1332   -2.2973    0.0000 N   0  0
   -3.4277   -1.5498    0.0000 C   0  0
   -3.4277    0.0000    0.0000 N   0  0
   -2.1332    0.6928    0.0000 C   0  0
   -0.8205    0.0000    0.0000 C   0  0
    0.4558    0.6928    0.0000 C   0  0
    1.7503    0.0000    0.0000 C   0  0
    1.7503   -1.5498    0.0000 C   0  0
    0.4558   -2.2973    0.0000 C   0  0
   -0.8205   -1.5498    0.0000 C   0  0
    0.4558    2.1879    0.0000 O   0  0
    3.0631    0.6928    0.0000 O   0  0
    3.0631    2.1879    0.0000 C   0  0
    1.7503    2.9537    0.0000 C   0  0
   -2.1454    2.1947    0.0000 N   0  0
    3.0410   -2.3153    0.0000 O   0  0
    3.0239   -3.8160    0.0000 C   0  0
   -3.4508    2.9353    0.0000 C   0  0
   -3.4653    4.4352    0.0000 C   0  0
   -4.7714    5.1728    0.0000 C   0  0
   -6.0632    4.4104    0.0000 C   0  0
   -6.0489    2.9104    0.0000 C   0  0
   -4.7427    2.1729    0.0000 C   0  0
   -7.1082    5.0004    0.0000 F   0  0
   -4.7829    6.3727    0.0000 Cl  0  0
    4.3146   -4.5820    0.0000 C   0  0
    1.9778   -4.4039    0.0000 C   0  0
    4.2976   -6.0827    0.0000 O   0  0
    5.3296   -6.6951    0.0000 C   0  0
  1  2  1  0
  2  3  2  0
  3  4  1  0
  4  5  2  0
  5  6  1  0
  6  7  2  0
  7  8  1  0
  8  9  2  0
  9 10  1  0
  1 10  2  0
  5 10  1  0
 12 13  1  0
 13 14  1  0
 11 14  1  0
  6 11  1  0
  7 12  1  0
  4 15  1  0
 16 17  1  0
  8 16  1  0
 18 19  1  0
 19 20  2  0
 20 21  1  0
 21 22  2  0
 22 23  1  0
 18 23  2  0
 21 24  1  0
 20 25  1  0
 15 18  1  0
 17 26  1  0
 17 27  1  0
 26 28  1  0
 28 29  1  0
M  END
> <chembl_id>
CHEMBL3805775

$$$$

  SciTegic12091611202D

 29 32  0  0  0  0            999 V2000
   -4.9282   -3.7385    0.0000 C   0  0
    1.5604   -6.0143    0.0000 C   0  0  2  0  0  0
   -2.3155    0.7475    0.0000 N   0  0
   -2.3155   -0.7475    0.0000 C   0  0
    1.7138    1.2033    0.0000 N   0  0
   -1.0028    1.5132    0.0000 C   0  0
    1.7138   -1.2033    0.0000 N   0  0
   -2.3350   -5.2470    0.0000 C   0  0
   -1.0449   -7.5017    0.0000 C   0  0
   -3.6187   -1.4919    0.0000 N   0  0
    2.8477   -8.2736    0.0000 O   0  0
    1.5531   -7.5143    0.0000 C   0  0  1  0  0  0
    0.2917   -0.7475    0.0000 C   0  0
    2.5889    0.0182    0.0000 C   0  0
   -2.3301   -3.7470    0.0000 N   0  0
    0.2650   -5.2580    0.0000 C   0  0
   -3.6267   -2.9927    0.0000 C   0  0
   -4.9331   -5.2385    0.0000 C   0  0
   -1.0028   -1.5132    0.0000 C   0  0
   -3.6365   -5.9928    0.0000 N   0  0
    0.2505   -8.2579    0.0000 C   0  0
    0.2917    0.7475    0.0000 C   0  0
   -1.0378   -6.0016    0.0000 N   0  0
    2.1855   -2.6254    0.0000 C   0  0
    3.3606   -2.8684    0.0000 C   0  0
    1.3877   -3.5218    0.0000 C   0  0
    3.7889    0.0269    0.0000 C   0  0
    2.6025   -5.4193    0.0000 F   0  0
    2.8401   -9.4736    0.0000 C   0  0
 12 11  1  1
 16  2  1  0
 23 16  1  0
 10  4  1  0
  4  3  1  0
 13  7  1  0
 17  1  1  0
 14  5  2  0
  2 12  1  0
 15 17  2  0
 22  5  1  0
 14  7  1  0
 21  9  1  0
 10 17  1  0
  6 22  1  0
 22 13  2  0
  6  3  2  0
 13 19  1  0
 18 20  1  0
 19  4  2  0
  8 23  1  0
  1 18  2  0
 23  9  1  0
  8 20  2  0
  8 15  1  0
 12 21  1  0
  7 24  1  0
 24 25  1  0
 24 26  1  0
 14 27  1  0
  2 28  1  6
 11 29  1  0
M  END
> <chembl_id>
CHEMBL3735740

$$$$

  SciTegic12201615542D

 41 46  0  0  0  0            999 V2000
    1.4499    7.7742    0.0000 C   0  0
    0.5265    8.9573    0.0000 C   0  0
    0.9759   10.0700    0.0000 C   0  0
    2.6383    7.9411    0.0000 O   0  0
    0.8879    6.3826    0.0000 N   0  0
    1.8114    5.1995    0.0000 C   0  0
    1.2517    3.8078    0.0000 C   0  0
    2.1749    2.6315    0.0000 C   0  0
    3.6621    2.8384    0.0000 C   0  0
    4.2218    4.2301    0.0000 C   0  0
    3.2965    5.4106    0.0000 C   0  0
   -1.0028   -1.5132    0.0000 C   0  0
    0.2917   -0.7475    0.0000 C   0  0
    0.2917    0.7475    0.0000 C   0  0
   -1.0028    1.5132    0.0000 C   0  0
   -2.3155    0.7475    0.0000 C   0  0
   -2.3155   -0.7475    0.0000 C   0  0
    2.5889    0.0182    0.0000 C   0  0
    1.7138   -1.2033    0.0000 N   0  0
    1.7138    1.2033    0.0000 N   0  0
    4.0896    0.0290    0.0000 C   0  0
    4.9234    1.2700    0.0000 C   0  0
    4.7453   -1.3220    0.0000 N   0  0
    6.4199    1.1671    0.0000 N   0  0
    7.0791   -0.1803    0.0000 C   0  0
    6.2418   -1.4248    0.0000 C   0  0
    7.2286   -5.1568    0.0000 N   0  0
    8.5770   -4.4998    0.0000 N   0  0
    8.3688   -3.0143    0.0000 C   0  0
    6.9013   -2.7729    0.0000 C   0  0
    6.1870   -4.0774    0.0000 C   0  0
    6.9648   -6.6317    0.0000 C   0  0
    4.3957    2.3477    0.0000 N   0  0
    5.5535   -7.1424    0.0000 C   0  0
    5.2893   -8.6198    0.0000 N   0  0
    3.8795   -9.1323    0.0000 C   0  0
    3.6185  -10.6094    0.0000 C   0  0
    4.7671  -11.5741    0.0000 N   0  0
    6.1769  -11.0617    0.0000 C   0  0
    6.4380   -9.5846    0.0000 C   0  0
    4.5582  -12.7558    0.0000 C   0  0
  1  2  1  0
  2  3  2  0
  1  4  2  0
  1  5  1  0
  6  7  1  0
  7  8  2  0
  8  9  1  0
  9 10  2  0
 10 11  1  0
  6 11  2  0
 12 13  1  0
 13 14  2  0
 14 15  1  0
 15 16  2  0
 16 17  1  0
 12 17  2  0
 18 19  2  0
 18 20  1  0
 13 19  1  0
 14 20  1  0
 21 22  1  0
 21 23  2  0
 22 24  2  0
 24 25  1  0
 25 26  2  0
 23 26  1  0
 27 28  1  0
 28 29  2  0
 29 30  1  0
 30 31  2  0
 27 31  1  0
 27 32  1  0
 26 30  1  0
 22 33  1  0
 18 21  1  0
  8 20  1  0
  5  6  1  0
 32 34  1  0
 34 35  1  0
 35 36  1  0
 35 40  1  0
 36 37  1  0
 37 38  1  0
 38 39  1  0
 39 40  1  0
 38 41  1  0
M  END
> <chembl_id>
CHEMBL3814819

$$$$

  SciTegic04201609482D

 31 34  0  0  0  0            999 V2000
   -1.0028    1.5132    0.0000 C   0  0
   -2.3155    0.7475    0.0000 N   0  0
   -2.3155   -0.7475    0.0000 C   0  0
   -1.0028   -1.5132    0.0000 N   0  0
    0.2917    0.7475    0.0000 C   0  0
    0.2917   -0.7475    0.0000 C   0  0
    1.7138   -1.2033    0.0000 N   0  0
    2.5889    0.0182    0.0000 C   0  0
    1.7138    1.2033    0.0000 N   0  0
    2.1855   -2.6254    0.0000 C   0  0
    3.3606   -2.8684    0.0000 C   0  0
    1.3877   -3.5218    0.0000 C   0  0
   -0.9971    3.0138    0.0000 N   0  0
   -2.2935    3.7700    0.0000 C   0  0
   -3.6464    3.1521    0.0000 C   0  0
   -4.6475    4.2692    0.0000 N   0  0
   -3.8944    5.5664    0.0000 N   0  0
   -2.4279    5.2511    0.0000 C   0  0
   -5.8412    4.1465    0.0000 C   0  0
   -3.6168   -1.4950    0.0000 N   0  0
   -3.7580   -2.9756    0.0000 C   0  0
   -5.2259   -3.2843    0.0000 C   0  0  2  0  0  0
   -5.9730   -1.9836    0.0000 C   0  0  1  0  0  0
   -4.9669   -0.8711    0.0000 C   0  0
   -7.1662   -1.8556    0.0000 F   0  0
   -5.8354   -4.6530    0.0000 N   0  0
   -4.9542   -5.8678    0.0000 C   0  0
   -5.5648   -7.2388    0.0000 C   0  0
   -3.7607   -5.7429    0.0000 O   0  0
   -4.8601   -8.2102    0.0000 C   0  0
   -1.5295    6.0466    0.0000 C   0  0
  5  1  2  0
  1  2  1  0
  2  3  2  0
  3  4  1  0
  4  6  2  0
  5  6  1  0
  6  7  1  0
  7  8  1  0
  8  9  2  0
  9  5  1  0
  7 10  1  0
 10 11  1  0
 10 12  1  0
  1 13  1  0
 13 14  1  0
 14 15  2  0
 15 16  1  0
 16 17  1  0
 17 18  2  0
 18 14  1  0
 16 19  1  0
  3 20  1  0
 20 21  1  0
 21 22  1  0
 22 23  1  0
 23 24  1  0
 24 20  1  0
 23 25  1  6
 22 26  1  1
 26 27  1  0
 27 28  1  0
 27 29  2  0
 28 30  2  0
 18 31  1  0
M  END
> <chembl_id>
CHEMBL3608432

$$$$

  SciTegic12121614122D

 40 44  0  0  0  0            999 V2000
   -1.2913    7.5063    0.0000 C   0  0
   -2.5882    8.2616    0.0000 C   0  0
   -2.5845    9.4615    0.0000 C   0  0
   -0.2500    8.1028    0.0000 O   0  0
   -1.2959    6.0055    0.0000 N   0  0
    0.0011    5.2503    0.0000 C   0  0
   -0.0014    3.7503    0.0000 C   0  0
    1.2964    2.9980    0.0000 C   0  0
    2.5967    3.7460    0.0000 C   0  0
    2.5992    5.2460    0.0000 C   0  0
    1.3014    5.9981    0.0000 C   0  0
   -2.6111    0.7486    0.0000 C   0  0
   -1.2964    1.4973    0.0000 N   0  0
    0.0000    0.7486    0.0000 C   0  0
    0.0000   -0.7486    0.0000 C   0  0
   -1.2964   -1.4973    0.0000 C   0  0
   -2.6111   -0.7486    0.0000 N   0  0
    1.2964   -1.4973    0.0000 C   0  0
    2.5929   -0.7486    0.0000 C   0  0
    2.5929    0.7486    0.0000 C   0  0
    1.2964    1.4973    0.0000 N   0  0
    3.6321    1.3486    0.0000 O   0  0
    1.2964   -2.6973    0.0000 C   0  0
   -1.2928   -2.6973    0.0000 C   0  0
   -3.9122    1.4966    0.0000 N   0  0
   -5.2109    0.7445    0.0000 C   0  0
   -6.5125    1.4901    0.0000 C   0  0
   -7.8091    0.7359    0.0000 C   0  0
   -7.8042   -0.7641    0.0000 C   0  0
   -6.5027   -1.5098    0.0000 C   0  0
   -5.2061   -0.7556    0.0000 C   0  0
   -9.1014   -1.5188    0.0000 N   0  0
  -10.4041   -0.7752    0.0000 C   0  0
  -11.6995   -1.5315    0.0000 C   0  0
  -11.6922   -3.0315    0.0000 N   0  0
  -10.3895   -3.7751    0.0000 C   0  0
   -9.0942   -3.0188    0.0000 C   0  0
  -12.7285   -3.6365    0.0000 C   0  0
   -6.5206    2.9910    0.0000 O   0  0
   -7.5627    3.5860    0.0000 C   0  0
  1  2  1  0
  2  3  2  0
  1  4  2  0
  1  5  1  0
  6  7  1  0
  7  8  2  0
  8  9  1  0
  9 10  2  0
 10 11  1  0
  6 11  2  0
 12 13  1  0
 13 14  2  0
 14 15  1  0
 15 16  2  0
 16 17  1  0
 12 17  2  0
 18 19  2  0
 19 20  1  0
 20 21  1  0
 14 21  1  0
 15 18  1  0
 20 22  2  0
 18 23  1  0
 16 24  1  0
 26 27  1  0
 27 28  2  0
 28 29  1  0
 29 30  2  0
 30 31  1  0
 26 31  2  0
 32 33  1  0
 33 34  1  0
 34 35  1  0
 35 36  1  0
 36 37  1  0
 32 37  1  0
 35 38  1  0
 29 32  1  0
 39 40  1  0
 27 39  1  0
 25 26  1  0
 12 25  1  0
  8 21  1  0
  5  6  1  0
M  END
> <chembl_id>
CHEMBL3753461

$$$$

  SciTegic12161615052D

 34 37  0  0  0  0            999 V2000
    1.2990   -0.7500    0.0000 C   0  0
    1.2990    0.7500    0.0000 C   0  0
    0.0000    1.5000    0.0000 C   0  0
   -1.2990    0.7500    0.0000 C   0  0
   -1.2990   -0.7500    0.0000 C   0  0
    0.0000   -1.5000    0.0000 N   0  0
    2.5972    1.5031    0.0000 C   0  0
    3.6375    0.9049    0.0000 O   0  0
    2.5951    3.0039    0.0000 N   0  0
    2.3383   -1.3500    0.0000 O   0  0
    3.8933    3.7570    0.0000 C   0  0
    3.8933    5.2571    0.0000 C   0  0
    5.1924    6.0071    0.0000 C   0  0
    6.4914    5.2571    0.0000 C   0  0
    6.4915    3.7571    0.0000 C   0  0
    5.1925    3.0071    0.0000 C   0  0
    7.7911    6.0075    0.0000 N   0  0
    7.7935    7.5076    0.0000 C   0  0
    9.0937    8.2556    0.0000 C   0  0
   10.3916    7.5036    0.0000 N   0  0
   10.3893    6.0036    0.0000 C   0  0
    9.0891    5.2556    0.0000 C   0  0
   11.4318    8.1019    0.0000 C   0  0
   -0.0031    3.0008    0.0000 N   0  0
   -1.3039    3.7494    0.0000 C   0  0
   -1.3070    5.2502    0.0000 C   0  0  1  0  0  0
   -0.2688    5.8520    0.0000 O   0  0
   -2.6078    5.9988    0.0000 C   0  0
   -2.6131    7.4988    0.0000 C   0  0
   -3.9148    8.2443    0.0000 C   0  0
   -5.2112    7.4898    0.0000 C   0  0
   -5.2060    5.9898    0.0000 C   0  0
   -3.9044    5.2443    0.0000 C   0  0
   -3.9189    9.4443    0.0000 Cl  0  0
  1  2  1  0
  2  3  2  0
  3  4  1  0
  4  5  2  0
  5  6  1  0
  1  6  1  0
  7  8  2  0
  7  9  1  0
  2  7  1  0
  1 10  2  0
 11 12  1  0
 12 13  2  0
 13 14  1  0
 14 15  2  0
 15 16  1  0
 11 16  2  0
 17 18  1  0
 18 19  1  0
 19 20  1  0
 20 21  1  0
 21 22  1  0
 17 22  1  0
 20 23  1  0
 14 17  1  0
  9 11  1  0
 25 26  1  0
 26 27  1  6
 28 29  1  0
 29 30  2  0
 30 31  1  0
 31 32  2  0
 32 33  1  0
 28 33  2  0
 30 34  1  0
 26 28  1  0
 24 25  1  0
  3 24  1  0
M  END
> <chembl_id>
CHEMBL3781433

$$$$

  SciTegic09081514182D

 50 51  0  0  0  0            999 V2000
    1.2990   -0.7500    0.0000 C   0  0
    1.2990    0.7500    0.0000 C   0  0
    0.0000    1.5000    0.0000 C   0  0
   -1.2990    0.7500    0.0000 C   0  0
   -1.2990   -0.7500    0.0000 C   0  0
    0.0000   -1.5000    0.0000 C   0  0
   -2.5972   -1.5031    0.0000 C   0  0
   -2.5951   -3.0039    0.0000 C   0  0
   -3.8933   -3.7570    0.0000 C   0  0
   -3.8912   -5.2578    0.0000 C   0  0
   -4.9336   -3.1588    0.0000 O   0  0
   -5.1894   -6.0109    0.0000 C   0  0
   -5.1872   -7.5117    0.0000 C   0  0
   -6.2296   -5.4127    0.0000 O   0  0
   -6.4854   -8.2648    0.0000 C   0  0
   -6.4833   -9.7657    0.0000 C   0  0
   -7.7797  -10.5203    0.0000 C   0  0
   -7.7745  -12.0202    0.0000 C   0  0
   -6.4729  -12.7657    0.0000 C   0  0
   -5.1764  -12.0112    0.0000 C   0  0
   -5.1816  -10.5113    0.0000 C   0  0
    2.5973   -1.5031    0.0000 O   0  0
    2.5972    1.5031    0.0000 O   0  0
   -6.4708  -14.2666    0.0000 O   0  0
   -3.8726  -12.7545    0.0000 O   0  0
    2.5956   -2.7031    0.0000 C   0  0
    2.5951    3.0039    0.0000 C   0  0
   -2.8363  -12.1494    0.0000 C   0  0
   -7.7690  -15.0196    0.0000 C   0  0
    3.8933    3.7570    0.0000 C   0  0
    3.8912    5.2578    0.0000 C   0  0
    5.1894    6.0109    0.0000 C   0  0
    6.2296    5.4128    0.0000 O   0  0
    5.1872    7.5118    0.0000 O   0  0
    6.4854    8.2649    0.0000 C   0  0
    6.4837    9.4649    0.0000 C   0  0
   -7.7669  -16.5205    0.0000 C   0  0
   -9.0651  -17.2735    0.0000 C   0  0
   -9.0630  -18.7743    0.0000 C   0  0
  -10.3612  -19.5274    0.0000 O   0  0
   -8.0227  -19.3725    0.0000 O   0  0
  -10.3591  -21.0282    0.0000 C   0  0
  -11.3971  -21.6303    0.0000 C   0  0
   -2.5916   -6.0087    0.0000 C   0  0
   -2.5912   -7.5095    0.0000 C   0  0
   -1.2916   -8.2603    0.0000 C   0  0
   -0.2524   -7.6603    0.0000 O   0  0
   -1.2912   -9.7611    0.0000 O   0  0
    0.0084  -10.5119    0.0000 C   0  0
    0.0087  -11.7119    0.0000 C   0  0
  1  2  2  0
  2  3  1  0
  3  4  2  0
  4  5  1  0
  5  6  2  0
  6  1  1  0
  5  7  1  0
  7  8  2  0
  8  9  1  0
  9 10  2  0
  9 11  1  0
 10 12  1  0
 12 13  1  0
 12 14  2  0
 13 15  2  0
 15 16  1  0
 16 17  2  0
 17 18  1  0
 18 19  2  0
 19 20  1  0
 20 21  2  0
 21 16  1  0
  1 22  1  0
  2 23  1  0
 19 24  1  0
 20 25  1  0
 22 26  1  0
 23 27  1  0
 25 28  1  0
 24 29  1  0
 27 30  1  0
 30 31  1  0
 31 32  1  0
 32 33  2  0
 32 34  1  0
 34 35  1  0
 35 36  1  0
 29 37  1  0
 37 38  1  0
 38 39  1  0
 39 40  1  0
 39 41  2  0
 40 42  1  0
 42 43  1  0
 10 44  1  0
 44 45  1  0
 45 46  1  0
 46 47  2  0
 46 48  1  0
 48 49  1  0
 49 50  1  0
M  END
> <chembl_id>
CHEMBL3402862

$$$$

  SciTegic10011413212D

 48 53  0  0  0  0            999 V2000
    1.6839   -9.1790    0.0000 C   0  0
    1.6839   -9.9961    0.0000 C   0  0
    2.3892  -10.4006    0.0000 N   0  0
    3.0945   -9.9961    0.0000 C   0  0
    3.0945   -9.1790    0.0000 C   0  0
    2.3892   -8.7662    0.0000 N   0  0
    2.3892  -11.2178    0.0000 C   0  0
    2.3896   -7.9499    0.0000 C   0  0
    3.0990   -7.5419    0.0000 C   0  0
    3.0993   -6.7255    0.0000 C   0  0
    2.3911   -6.3160    0.0000 C   0  0
    1.6810   -6.7290    0.0000 C   0  0
    1.6842   -7.5441    0.0000 C   0  0
    0.9719   -6.3229    0.0000 O   0  0
    0.2656   -6.7340    0.0000 C   0  0
    2.3900   -5.4988    0.0000 N   0  0
    3.0971   -5.0893    0.0000 C   0  0
    3.8037   -5.5012    0.0000 N   0  0
    3.7965   -3.8668    0.0000 C   0  0
    3.0928   -4.2780    0.0000 N   0  0
    4.5147   -5.0908    0.0000 C   0  0
    4.5097   -4.2742    0.0000 C   0  0
    5.1477   -3.7555    0.0000 C   0  0
    5.1619   -5.5980    0.0000 N   0  0
    5.9613   -5.4074    0.0000 C   0  0
    5.9460   -3.9268    0.0000 N   0  0
    6.3085   -4.6631    0.0000 C   0  0
    4.9569   -2.9609    0.0000 O   0  0
    6.4778   -6.0407    0.0000 O   0  0
    4.9895   -6.3924    0.0000 C   0  0
    4.2094   -6.6394    0.0000 C   0  0
    4.0346   -7.4369    0.0000 C   0  0
    4.6390   -7.9882    0.0000 C   0  0
    5.4209   -7.7364    0.0000 C   0  0
    5.5920   -6.9395    0.0000 C   0  0
    6.0269   -8.2847    0.0000 N   0  0
    5.8552   -9.0836    0.0000 C   0  0
    6.4612   -9.6318    0.0000 C   0  0
    5.0774   -9.3343    0.0000 O   0  0
    6.2894  -10.4307    0.0000 C   0  0
    6.4485   -3.2824    0.0000 C   0  0
    7.1256   -4.6544    0.0000 C   0  0
    7.5267   -3.9425    0.0000 C   0  0
    8.3481   -3.9352    0.0000 C   0  0
    8.7492   -3.2241    0.0000 C   0  0
    8.3331   -2.5197    0.0000 C   0  0
    7.5117   -2.5310    0.0000 C   0  0
    7.1144   -3.2427    0.0000 C   0  0
  1  2  1  0
  1  6  1  0
  2  3  1  0
  3  4  1  0
  4  5  1  0
  5  6  1  0
  3  7  1  0
  8  9  2  0
  9 10  1  0
 10 11  2  0
 11 12  1  0
 12 13  2  0
 13  8  1  0
  6  8  1  0
 12 14  1  0
 14 15  1  0
 11 16  1  0
 16 17  1  0
 17 18  2  0
 18 21  1  0
 22 19  1  0
 19 20  2  0
 20 17  1  0
 21 22  2  0
 22 23  1  0
 21 24  1  0
 23 26  1  0
 24 25  1  0
 25 27  1  0
 26 27  1  0
 23 28  2  0
 25 29  2  0
 30 31  2  0
 31 32  1  0
 32 33  2  0
 33 34  1  0
 34 35  2  0
 35 30  1  0
 24 30  1  0
 34 36  1  0
 36 37  1  0
 37 38  1  0
 37 39  2  0
 38 40  2  0
 26 41  1  0
 27 42  1  0
 42 43  1  0
 43 44  2  0
 44 45  1  0
 45 46  2  0
 46 47  1  0
 47 48  2  0
 48 43  1  0
M  END
> <chembl_id>
CHEMBL3219133

$$$$

  SciTegic05221516342D

 38 41  0  0  0  0            999 V2000
   30.9611  -28.9649    0.0000 C   0  0
   30.9599  -29.7844    0.0000 C   0  0
   31.6680  -30.1934    0.0000 N   0  0
   32.3776  -29.7839    0.0000 C   0  0
   32.3748  -28.9613    0.0000 N   0  0
   31.6662  -28.5560    0.0000 C   0  0
   31.6642  -27.7389    0.0000 C   0  0
   32.3239  -27.2566    0.0000 C   0  0
   32.0691  -26.4801    0.0000 N   0  0
   31.0017  -27.2605    0.0000 C   0  0
   31.2486  -26.4794    0.0000 C   0  0
   30.6985  -25.8784    0.0000 C   0  0
   29.8987  -26.0529    0.0000 C   0  0
   29.6519  -26.8340    0.0000 C   0  0
   30.2049  -27.4407    0.0000 C   0  0
   33.0860  -30.1914    0.0000 N   0  0
   33.7930  -29.7817    0.0000 C   0  0
   34.4980  -30.1896    0.0000 C   0  0
   35.2046  -29.7806    0.0000 C   0  0
   35.2038  -28.9625    0.0000 C   0  0
   34.4905  -28.5552    0.0000 C   0  0
   33.7868  -28.9666    0.0000 C   0  0
   34.4981  -31.0068    0.0000 O   0  0
   33.7905  -31.4155    0.0000 C   0  0
   34.4863  -27.7380    0.0000 N   0  0
   33.7765  -27.3330    0.0000 C   0  0
   33.7724  -26.5159    0.0000 C   0  0
   33.0709  -27.7452    0.0000 O   0  0
   34.4780  -26.1037    0.0000 C   0  0
   35.9103  -28.5519    0.0000 N   0  0
   36.6192  -28.9584    0.0000 C   0  0
   35.9079  -27.7347    0.0000 C   0  0
   36.6216  -29.7756    0.0000 C   0  0
   37.3305  -30.1822    0.0000 N   0  0
   37.3328  -30.9993    0.0000 C   0  0
   38.0370  -29.7715    0.0000 C   0  0
   32.5487  -25.8185    0.0000 C   0  0
   30.2532  -28.5564    0.0000 C   0  0
  1  2  2  0
  2  3  1  0
  3  4  2  0
  4  5  1  0
  5  6  2  0
  6  1  1  0
  7  8  2  0
  8  9  1  0
  9 11  1  0
 10  7  1  0
  6  7  1  0
 10 11  2  0
 10 15  1  0
 11 12  1  0
 12 13  2  0
 13 14  1  0
 14 15  2  0
  4 16  1  0
 16 17  1  0
 17 18  2  0
 18 19  1  0
 19 20  2  0
 20 21  1  0
 21 22  2  0
 22 17  1  0
 18 23  1  0
 23 24  1  0
 21 25  1  0
 25 26  1  0
 26 27  1  0
 26 28  2  0
 27 29  2  0
 20 30  1  0
 30 31  1  0
 30 32  1  0
 31 33  1  0
 33 34  1  0
 34 35  1  0
 34 36  1  0
  9 37  1  0
  1 38  1  0
M  END
> <chembl_id>
CHEMBL3353409

$$$$

  SciTegic01161211222D

 23 25  0  0  0  0            999 V2000
   16.3444   -5.2041    0.0000 C   0  0
   16.3432   -6.0315    0.0000 C   0  0
   17.0581   -6.4444    0.0000 C   0  0
   17.0563   -4.7914    0.0000 C   0  0
   17.7716   -5.2005    0.0000 C   0  0
   17.7724   -6.0273    0.0000 C   0  0
   18.4877   -6.4383    0.0000 N   0  0
   19.2027   -6.0235    0.0000 C   0  0
   19.1980   -5.1936    0.0000 N   0  0
   18.4821   -4.7863    0.0000 C   0  0
   18.4777   -3.9614    0.0000 N   0  0
   19.1900   -3.5451    0.0000 C   0  0
   19.9056   -3.9593    0.0000 C   0  0
   20.6174   -3.5437    0.0000 C   0  0
   20.6135   -2.7178    0.0000 C   0  0
   19.8918   -2.3093    0.0000 C   0  0
   19.1830   -2.7272    0.0000 C   0  0
   21.3339   -3.9527    0.0000 Br  0  0
   15.6298   -4.7918    0.0000 N   0  0
   14.9155   -5.2045    0.0000 C   0  0
   14.2009   -4.7921    0.0000 C   0  0
   14.9157   -6.0295    0.0000 O   0  0
   13.4865   -5.2048    0.0000 C   0  0
 10 11  1  0
  2  3  1  0
 11 12  1  0
  5  6  1  0
 12 13  2  0
  3  6  2  0
 13 14  1  0
  6  7  1  0
 14 15  2  0
  1  2  2  0
 15 16  1  0
  7  8  2  0
 16 17  2  0
 17 12  1  0
  5  4  2  0
 14 18  1  0
  8  9  1  0
  1 19  1  0
  4  1  1  0
 19 20  1  0
  9 10  2  0
 20 21  1  0
 10  5  1  0
 20 22  2  0
 21 23  1  0
M  END
> <chembl_id>
CHEMBL188762

$$$$

  SciTegic10311316262D

 59 64  0  0  0  0            999 V2000
   20.2532  -13.2040    0.0000 O   0  0
   19.8085  -12.5185    0.0000 S   0  0
   19.4371  -13.2462    0.0000 O   0  0
   18.3756  -13.4418    0.0000 O   0  0
   18.3987  -12.6249    0.0000 C   0  0
   19.0727  -12.1615    0.0000 C   0  0
   18.8425  -11.3776    0.0000 N   0  3
   18.0256  -11.3545    0.0000 O   0  0
   17.7513  -12.1243    0.0000 N   0  0
   20.5135  -12.1087    0.0000 C   0  0
   21.2195  -12.5186    0.0000 C   0  0
   21.9254  -12.1083    0.0000 C   0  0
   21.9231  -11.2903    0.0000 C   0  0
   21.2091  -10.8842    0.0000 C   0  0
   20.5061  -11.2967    0.0000 C   0  0
   25.4388  -17.5572    0.0000 C   0  0
   25.4377  -18.3767    0.0000 C   0  0
   26.1457  -18.7857    0.0000 C   0  0
   26.8554  -18.3763    0.0000 C   0  0
   26.8526  -17.5536    0.0000 C   0  0
   26.1439  -17.1483    0.0000 C   0  0
   24.7317  -17.1444    0.0000 N   0  0
   24.7335  -16.3262    0.0000 C   0  0
   24.0298  -15.9179    0.0000 C   0  0
   23.3198  -16.3232    0.0000 N   0  0
   23.3180  -17.1413    0.0000 C   0  0
   24.0262  -17.5542    0.0000 C   0  0
   22.6135  -15.9121    0.0000 C   0  0
   26.1455  -19.6029    0.0000 O   0  0
   25.4377  -20.0113    0.0000 C   0  0
   27.5637  -18.7837    0.0000 N   0  0
   28.2708  -18.3740    0.0000 C   0  0
   28.9758  -18.7820    0.0000 N   0  0
   29.6824  -18.3729    0.0000 C   0  0
   29.6816  -17.5549    0.0000 C   0  0
   28.9682  -17.1476    0.0000 C   0  0
   28.2646  -17.5589    0.0000 N   0  0
   30.3881  -17.1442    0.0000 Cl  0  0
   28.9641  -16.3304    0.0000 O   0  0
   29.6697  -15.9182    0.0000 C   0  0
   30.3800  -16.3255    0.0000 C   0  0
   31.0851  -15.9140    0.0000 C   0  0
   31.0814  -15.0959    0.0000 C   0  0
   30.3666  -14.6912    0.0000 C   0  0
   29.6644  -15.1050    0.0000 C   0  0
   31.7947  -16.3193    0.0000 N   0  0
   32.5005  -15.9075    0.0000 C   0  0
   33.2101  -16.3128    0.0000 C   0  0
   32.4967  -15.0903    0.0000 O   0  0
   33.9159  -15.9009    0.0000 C   0  0
   22.6164  -15.0949    0.0000 C   0  0
   21.9101  -14.6838    0.0000 O   0  0
   23.3255  -14.6888    0.0000 O   0  0
   21.2010  -15.0899    0.0000 C   0  0
   20.4947  -14.6788    0.0000 C   0  0
   20.4976  -13.8616    0.0000 O   0  0
   19.7914  -13.4505    0.0000 C   0  0
   19.0822  -13.8566    0.0000 C   0  0
   19.4186  -10.7927    0.0000 O   0  5
  2  1  2  0
  3  2  2  0
  4  5  1  0
  5  6  1  0
  6  7  2  0
  7  8  1  0
  8  9  1  0
  9  5  2  0
  6  2  1  0
  2 10  1  0
 10 11  2  0
 11 12  1  0
 12 13  2  0
 13 14  1  0
 14 15  2  0
 15 10  1  0
 16 17  2  0
 17 18  1  0
 18 19  2  0
 19 20  1  0
 20 21  2  0
 21 16  1  0
 22 23  1  0
 22 27  1  0
 23 24  1  0
 24 25  1  0
 25 26  1  0
 26 27  1  0
 16 22  1  0
 25 28  1  0
 18 29  1  0
 29 30  1  0
 19 31  1  0
 31 32  1  0
 32 33  2  0
 33 34  1  0
 34 35  2  0
 35 36  1  0
 36 37  2  0
 37 32  1  0
 35 38  1  0
 36 39  1  0
 39 40  1  0
 40 41  2  0
 41 42  1  0
 42 43  2  0
 43 44  1  0
 44 45  2  0
 45 40  1  0
 42 46  1  0
 46 47  1  0
 47 48  1  0
 47 49  2  0
 48 50  2  0
 28 51  1  0
 51 52  1  0
 51 53  2  0
 52 54  1  0
 54 55  1  0
 55 56  1  0
 56 57  1  0
 57 58  1  0
 58  4  1  0
  7 59  1  0
M  CHG  2   7   1  59  -1
M  END
> <chembl_id>
CHEMBL2381510

$$$$

  SciTegic06051313552D

 26 29  0  0  0  0            999 V2000
    8.7566   -7.5156    0.0000 C   0  0
    8.7554   -8.3352    0.0000 C   0  0
    9.4635   -8.7441    0.0000 C   0  0
   10.1731   -8.3347    0.0000 C   0  0
   10.1703   -7.5120    0.0000 C   0  0
    9.4617   -7.1068    0.0000 C   0  0
   10.8510   -7.0599    0.0000 C   0  0
   11.6182   -7.3411    0.0000 C   0  0
   12.1228   -6.6982    0.0000 C   0  0
   11.6669   -6.0203    0.0000 N   0  0
   10.8813   -6.2433    0.0000 N   0  0
   12.0724   -5.3108    0.0000 C   0  0
   12.8896   -5.3073    0.0000 N   0  0
   11.6608   -4.6049    0.0000 S   0  0
   12.9373   -6.7284    0.0000 C   0  0
   14.1833   -6.0650    0.0000 C   0  0
   13.3687   -6.0383    0.0000 C   0  0
   14.5700   -6.7898    0.0000 C   0  0
   14.1343   -7.4802    0.0000 C   0  0
   13.3193   -7.4493    0.0000 C   0  0
   12.8868   -8.1386    0.0000 C   0  0
   13.2682   -8.8593    0.0000 C   0  0
   14.0865   -8.8864    0.0000 C   0  0
   14.5153   -8.1964    0.0000 C   0  0
    8.0474   -8.7432    0.0000 O   0  0
    7.3400   -8.3341    0.0000 C   0  0
  1  2  2  0
  2  3  1  0
  3  4  2  0
  4  5  1  0
  5  6  2  0
  6  1  1  0
  7  8  1  0
  8  9  1  0
  9 10  1  0
 10 11  1  0
 11  7  2  0
  5  7  1  0
 10 12  1  0
 12 13  1  0
 12 14  2  0
 15 20  2  0
 18 16  1  0
 16 17  2  0
 17 15  1  0
  9 15  1  0
 18 19  2  0
 19 20  1  0
 20 21  1  0
 21 22  2  0
 22 23  1  0
 23 24  2  0
 24 19  1  0
  2 25  1  0
 25 26  1  0
M  END
> <chembl_id>
CHEMBL2325106

$$$$

  SciTegic12201615542D

 40 45  0  0  0  0            999 V2000
    0.1277   -8.8362    0.0000 C   0  0
    0.5953  -10.2623    0.0000 C   0  0
   -0.2047  -11.1567    0.0000 C   0  0
   -1.0468   -8.5902    0.0000 O   0  0
    1.1283   -7.7175    0.0000 N   0  0
    0.6607   -6.2914    0.0000 C   0  0
    1.6591   -5.1719    0.0000 C   0  0
    1.1889   -3.7475    0.0000 C   0  0
   -0.2799   -3.4426    0.0000 C   0  0
   -1.2783   -4.5621    0.0000 C   0  0
   -0.8080   -5.9865    0.0000 C   0  0
    2.1855   -2.6254    0.0000 C   0  0
    2.5889    0.0182    0.0000 C   0  0
    1.7138   -1.2033    0.0000 N   0  0
    0.2917   -0.7475    0.0000 C   0  0
    0.2917    0.7475    0.0000 C   0  0
    1.7138    1.2033    0.0000 N   0  0
   -1.0028    1.5132    0.0000 C   0  0
   -2.3155    0.7475    0.0000 C   0  0
   -2.3155   -0.7475    0.0000 C   0  0
   -1.0028   -1.5132    0.0000 C   0  0
    4.0896    0.0290    0.0000 C   0  0
    4.9412   -1.1997    0.0000 C   0  0
    4.7258    1.3894    0.0000 N   0  0
    6.4360   -1.0753    0.0000 N   0  0
    7.0757    0.2814    0.0000 C   0  0
    6.2206    1.5138    0.0000 C   0  0
    8.5168    4.6169    0.0000 N   0  0
    7.1611    5.2587    0.0000 N   0  0
    6.1317    4.1676    0.0000 C   0  0
    6.8606    2.8712    0.0000 C   0  0
    8.3253    3.1291    0.0000 C   0  0
   12.5654    6.5689    0.0000 N   0  0
   11.3465    7.4431    0.0000 C   0  0
    9.9799    6.8246    0.0000 C   0  0
    9.8336    5.3368    0.0000 C   0  0
   11.0512    4.4577    0.0000 C   0  0
   12.4177    5.0762    0.0000 C   0  0
   13.6586    7.0637    0.0000 C   0  0
    4.4291   -2.2850    0.0000 N   0  0
  1  2  1  0
  2  3  2  0
  1  4  2  0
  1  5  1  0
  6  7  1  0
  7  8  2  0
  8  9  1  0
  9 10  2  0
 10 11  1  0
  6 11  2  0
 13 14  1  0
 14 15  1  0
 15 16  1  0
 16 17  1  0
 13 17  2  0
 18 19  1  0
 19 20  2  0
 20 21  1  0
 15 21  2  0
 16 18  2  0
 22 23  1  0
 22 24  2  0
 23 25  2  0
 25 26  1  0
 26 27  2  0
 24 27  1  0
 28 29  1  0
 29 30  2  0
 30 31  1  0
 31 32  2  0
 28 32  1  0
 33 34  1  0
 34 35  1  0
 35 36  1  0
 36 37  1  0
 37 38  1  0
 33 38  1  0
 33 39  1  0
 28 36  1  0
 27 31  1  0
 23 40  1  0
 13 22  1  0
 12 14  1  0
  8 12  1  0
  5  6  1  0
M  END
> <chembl_id>
CHEMBL3814482

$$$$

  SciTegic04301217312D

 25 27  0  0  0  0            999 V2000
   10.8902   -7.4125    0.0000 C   0  0
   10.8891   -8.2398    0.0000 N   0  0
   11.6039   -8.6527    0.0000 C   0  0
   12.3203   -8.2394    0.0000 N   0  0
   12.3175   -7.4088    0.0000 C   0  0
   11.6021   -6.9997    0.0000 N   0  0
   13.0304   -6.9936    0.0000 N   0  0
   13.7464   -7.4034    0.0000 C   0  0
   13.7462   -8.2261    0.0000 C   0  0
   14.4613   -8.6358    0.0000 C   0  0
   15.1752   -8.2206    0.0000 C   0  0
   15.1695   -7.3913    0.0000 C   0  0
   14.4537   -6.9853    0.0000 C   0  0
   15.8918   -8.6294    0.0000 Cl  0  0
   11.6037   -9.4777    0.0000 N   0  0
   10.8891   -9.8900    0.0000 C   0  0
   10.8889  -10.7150    0.0000 C   0  0
   10.1743  -11.1274    0.0000 N   0  0
    9.4643  -10.7105    0.0000 C   0  0
    8.7519  -11.1193    0.0000 C   0  0
    8.7474  -11.9446    0.0000 O   0  0
    9.4616  -12.3595    0.0000 C   0  0
   10.1803  -11.9490    0.0000 C   0  0
   10.1757   -7.0001    0.0000 O   0  0
    9.4613   -7.4128    0.0000 C   0  0
  6  1  1  0
 12 13  2  0
 13  8  1  0
  1  2  2  0
 11 14  1  0
  5  7  1  0
  3 15  1  0
  3  4  2  0
 15 16  1  0
  7  8  1  0
 16 17  1  0
 17 18  1  0
 18 19  1  0
  8  9  2  0
  4  5  1  0
  9 10  1  0
  2  3  1  0
 10 11  2  0
 18 23  1  0
 19 20  1  0
 20 21  1  0
 21 22  1  0
 22 23  1  0
  5  6  2  0
  1 24  1  0
 11 12  1  0
 24 25  1  0
M  END
> <chembl_id>
CHEMBL1946846

$$$$

  CDK    12/20/10,14:45

 38 42  0  0  0  0  0  0  0  0999 V2000
    9.2583  -22.0208    0.0000 S   0  0  0  0  0  0  0  0  0  0  0  0
   13.9583  -20.8042    0.0000 C   0  0  0  0  0  0  0  0  0  0  0  0
   12.9000  -21.7625    0.0000 C   0  0  0  0  0  0  0  0  0  0  0  0
   15.0333  -20.0167    0.0000 C   0  0  0  0  0  0  0  0  0  0  0  0
   14.2083  -20.0208    0.0000 C   0  0  0  0  0  0  0  0  0  0  0  0
   15.2875  -20.8083    0.0000 C   0  0  0  0  0  0  0  0  0  0  0  0
   13.3833  -22.4292    0.0000 C   0  0  0  0  0  0  0  0  0  0  0  0
   14.6250  -21.2875    0.0000 N   0  0  0  0  0  0  0  0  0  0  0  0
   13.1542  -20.9792    0.0000 C   0  0  0  0  0  0  0  0  0  0  0  0
   12.9000  -23.1000    0.0000 N   0  0  0  0  0  0  0  0  0  0  0  0
   12.1125  -22.0167    0.0000 C   0  0  0  0  0  0  0  0  0  0  0  0
   12.1125  -22.8458    0.0000 C   0  0  0  0  0  0  0  0  0  0  0  0
    9.9708  -21.6083    0.0000 N   0  0  0  0  0  0  0  0  0  0  0  0
   15.5875  -19.4042    0.0000 C   0  0  0  0  0  0  0  0  0  0  0  0
   13.7958  -19.3042    0.0000 C   0  0  0  0  0  0  0  0  0  0  0  0
    9.6708  -22.7375    0.0000 O   0  0  0  0  0  0  0  0  0  0  0  0
    8.8458  -22.7375    0.0000 O   0  0  0  0  0  0  0  0  0  0  0  0
    8.5417  -21.6083    0.0000 C   0  0  0  0  0  0  0  0  0  0  0  0
   11.3958  -21.6083    0.0000 C   0  0  0  0  0  0  0  0  0  0  0  0
   14.2083  -22.4292    0.0000 O   0  0  0  0  0  0  0  0  0  0  0  0
   12.5625  -18.5875    0.0000 C   0  0  0  0  0  0  0  0  0  0  0  0
   10.6875  -22.0208    0.0000 C   0  0  0  0  0  0  0  0  0  0  0  0
   11.4000  -23.2625    0.0000 C   0  0  0  0  0  0  0  0  0  0  0  0
   15.3333  -18.6167    0.0000 O   0  0  0  0  0  0  0  0  0  0  0  0
   12.9750  -17.8750    0.0000 O   0  0  0  0  0  0  0  0  0  0  0  0
   12.9708  -19.3042    0.0000 C   0  0  0  0  0  0  0  0  0  0  0  0
   16.0917  -20.9792    0.0000 C   0  0  0  0  0  0  0  0  0  0  0  0
   10.6833  -22.8500    0.0000 C   0  0  0  0  0  0  0  0  0  0  0  0
   11.7375  -18.5875    0.0000 O   0  0  0  0  0  0  0  0  0  0  0  0
   16.3958  -19.5792    0.0000 C   0  0  0  0  0  0  0  0  0  0  0  0
   16.6500  -20.3708    0.0000 C   0  0  0  0  0  0  0  0  0  0  0  0
    8.5417  -20.7833    0.0000 C   0  0  0  0  0  0  0  0  0  0  0  0
    7.8292  -22.0208    0.0000 C   0  0  0  0  0  0  0  0  0  0  0  0
   11.3250  -17.8750    0.0000 C   0  0  0  0  0  0  0  0  0  0  0  0
   10.5000  -17.8708    0.0000 C   0  0  0  0  0  0  0  0  0  0  0  0
    7.1167  -21.6125    0.0000 C   0  0  0  0  0  0  0  0  0  0  0  0
    7.8292  -20.3708    0.0000 C   0  0  0  0  0  0  0  0  0  0  0  0
    7.1125  -20.7833    0.0000 C   0  0  0  0  0  0  0  0  0  0  0  0
  2  9  1  0  0  0  0 
  3 11  1  0  0  0  0 
  4  5  1  0  0  0  0 
  5  2  2  0  0  0  0 
  6  8  1  0  0  0  0 
  7  3  1  0  0  0  0 
  8  2  1  0  0  0  0 
  9  3  2  0  0  0  0 
 10 12  1  0  0  0  0 
 11 19  2  0  0  0  0 
 12 11  1  0  0  0  0 
 13  1  1  0  0  0  0 
 14  4  1  0  0  0  0 
 15  5  1  0  0  0  0 
 16  1  2  0  0  0  0 
 17  1  2  0  0  0  0 
 18  1  1  0  0  0  0 
 19 22  1  0  0  0  0 
 20  7  2  0  0  0  0 
 21 26  1  0  0  0  0 
 22 13  1  0  0  0  0 
 23 28  1  0  0  0  0 
 24 14  2  0  0  0  0 
 25 21  2  0  0  0  0 
 26 15  1  0  0  0  0 
 27  6  1  0  0  0  0 
 28 22  2  0  0  0  0 
 29 21  1  0  0  0  0 
 30 14  1  0  0  0  0 
 31 27  1  0  0  0  0 
 32 18  2  0  0  0  0 
 33 18  1  0  0  0  0 
 34 29  1  0  0  0  0 
 35 34  1  0  0  0  0 
 36 33  2  0  0  0  0 
 37 32  1  0  0  0  0 
 38 36  1  0  0  0  0 
 38 37  2  0  0  0  0 
 12 23  2  0  0  0  0 
  7 10  1  0  0  0  0 
  6  4  2  0  0  0  0 
 30 31  1  0  0  0  0 
M  END
> <chembl_id>
CHEMBL1215218

$$$$

  SciTegic10311316282D

 35 39  0  0  0  0            999 V2000
   20.4863  -15.3048    0.0000 N   0  0
   20.4862  -16.1322    0.0000 C   0  0
   21.2015  -16.5442    0.0000 N   0  0
   21.1976  -14.8912    0.0000 C   0  0
   21.9135  -15.2994    0.0000 C   0  0
   21.9149  -16.1258    0.0000 C   0  0
   22.7013  -16.3800    0.0000 N   0  0
   23.1860  -15.7106    0.0000 C   0  0
   22.6992  -15.0428    0.0000 C   0  0
   22.9616  -17.1663    0.0000 C   0  0
   22.4777  -17.8345    0.0000 C   0  0
   22.9637  -18.5012    0.0000 C   0  0
   23.7479  -18.2450    0.0000 C   0  0
   23.7465  -17.4200    0.0000 C   0  0
   21.1941  -14.0662    0.0000 N   0  0
   22.9530  -14.2578    0.0000 C   0  0
   23.7597  -14.0850    0.0000 C   0  0
   22.4000  -13.6456    0.0000 O   0  0
   24.3067  -14.6986    0.0000 C   0  0
   25.1128  -14.5263    0.0000 C   0  0
   25.3672  -13.7406    0.0000 C   0  0
   24.8094  -13.1270    0.0000 C   0  0
   24.0054  -13.3024    0.0000 C   0  0
   26.1737  -13.5668    0.0000 N   0  0
   26.7275  -14.1783    0.0000 C   0  0
   26.4748  -14.9636    0.0000 O   0  0
   27.5339  -14.0044    0.0000 N   0  0
   28.0877  -14.6159    0.0000 C   0  0
   27.8312  -15.3995    0.0000 C   0  0
   28.3842  -16.0107    0.0000 C   0  0
   29.1917  -15.8371    0.0000 C   0  0
   29.4431  -15.0468    0.0000 C   0  0
   28.8884  -14.4390    0.0000 C   0  0
   29.1376  -13.6526    0.0000 F   0  0
   27.0243  -15.5711    0.0000 F   0  0
  1  2  2  0
  2  3  1  0
  3  6  2  0
  5  4  2  0
  4  1  1  0
  5  6  1  0
  6  7  1  0
  7  8  1  0
  8  9  2  0
  9  5  1  0
 10 11  1  0
 11 12  1  0
 12 13  1  0
 13 14  1  0
 14 10  1  0
  7 10  1  0
  4 15  1  0
  9 16  1  0
 16 17  1  0
 16 18  2  0
 17 19  2  0
 19 20  1  0
 20 21  2  0
 21 22  1  0
 22 23  2  0
 23 17  1  0
 21 24  1  0
 24 25  1  0
 25 26  2  0
 25 27  1  0
 27 28  1  0
 28 29  2  0
 29 30  1  0
 30 31  2  0
 31 32  1  0
 32 33  2  0
 33 28  1  0
 33 34  1  0
 29 35  1  0
M  END
> <chembl_id>
CHEMBL2386996

$$$$

  SciTegic10011413212D

 50 55  0  0  0  0            999 V2000
    8.9354   -9.5999    0.0000 C   0  0
    8.9354  -10.4171    0.0000 C   0  0
    9.6407  -10.8216    0.0000 N   0  0
   10.3460  -10.4171    0.0000 C   0  0
   10.3460   -9.5999    0.0000 C   0  0
    9.6407   -9.1872    0.0000 N   0  0
    9.6407  -11.6388    0.0000 C   0  0
    9.6412   -8.3709    0.0000 C   0  0
   10.3505   -7.9629    0.0000 C   0  0
   10.3508   -7.1464    0.0000 C   0  0
    9.6426   -6.7370    0.0000 C   0  0
    8.9325   -7.1500    0.0000 C   0  0
    8.9357   -7.9651    0.0000 C   0  0
    8.2234   -6.7439    0.0000 O   0  0
    7.5171   -7.1550    0.0000 C   0  0
    9.6415   -5.9198    0.0000 N   0  0
   10.3487   -5.5103    0.0000 C   0  0
   11.0552   -5.9221    0.0000 N   0  0
   11.0481   -4.2877    0.0000 C   0  0
   10.3443   -4.6989    0.0000 N   0  0
   11.7663   -5.5118    0.0000 C   0  0
   11.7613   -4.6952    0.0000 C   0  0
   12.3992   -4.1765    0.0000 C   0  0
   12.4135   -6.0189    0.0000 N   0  0
   13.2128   -5.8284    0.0000 C   0  0
   13.1975   -4.3478    0.0000 N   0  0
   13.5600   -5.0840    0.0000 C   0  0
   12.2085   -3.3818    0.0000 O   0  0
   13.7293   -6.4616    0.0000 O   0  0
   12.2410   -6.8134    0.0000 C   0  0
   11.4609   -7.0604    0.0000 C   0  0
   11.2862   -7.8579    0.0000 C   0  0
   11.8906   -8.4092    0.0000 C   0  0
   12.6725   -8.1574    0.0000 C   0  0
   12.8435   -7.3605    0.0000 C   0  0
   13.2785   -8.7056    0.0000 N   0  0
   13.1067   -9.5046    0.0000 C   0  0
   13.7127  -10.0528    0.0000 C   0  0
   12.3289   -9.7553    0.0000 O   0  0
   13.5410  -10.8517    0.0000 C   0  0
   13.7000   -3.7034    0.0000 C   0  0
   14.3772   -5.0754    0.0000 C   0  0
   14.7783   -4.3634    0.0000 C   0  0
   15.5997   -4.3562    0.0000 C   0  0
   16.0007   -3.6451    0.0000 C   0  0
   15.5846   -2.9407    0.0000 C   0  0
   14.7633   -2.9520    0.0000 C   0  0
   14.3659   -3.6637    0.0000 C   0  0
   15.9848   -2.2282    0.0000 O   0  0
   16.8019   -2.2185    0.0000 C   0  0
  1  2  1  0
  1  6  1  0
  2  3  1  0
  3  4  1  0
  4  5  1  0
  5  6  1  0
  3  7  1  0
  8  9  2  0
  9 10  1  0
 10 11  2  0
 11 12  1  0
 12 13  2  0
 13  8  1  0
  6  8  1  0
 12 14  1  0
 14 15  1  0
 11 16  1  0
 16 17  1  0
 17 18  2  0
 18 21  1  0
 22 19  1  0
 19 20  2  0
 20 17  1  0
 21 22  2  0
 22 23  1  0
 21 24  1  0
 23 26  1  0
 24 25  1  0
 25 27  1  0
 26 27  1  0
 23 28  2  0
 25 29  2  0
 30 31  2  0
 31 32  1  0
 32 33  2  0
 33 34  1  0
 34 35  2  0
 35 30  1  0
 24 30  1  0
 34 36  1  0
 36 37  1  0
 37 38  1  0
 37 39  2  0
 38 40  2  0
 26 41  1  0
 27 42  1  0
 42 43  1  0
 43 44  2  0
 44 45  1  0
 45 46  2  0
 46 47  1  0
 47 48  2  0
 48 43  1  0
 46 49  1  0
 49 50  1  0
M  END
> <chembl_id>
CHEMBL3219134

$$$$

  SciTegic12121614122D

 41 46  0  0  0  0            999 V2000
   -1.2913    7.5063    0.0000 C   0  0
   -2.5882    8.2616    0.0000 C   0  0
   -2.5845    9.4615    0.0000 C   0  0
   -0.2500    8.1028    0.0000 O   0  0
   -1.2959    6.0055    0.0000 N   0  0
    0.0011    5.2503    0.0000 C   0  0
   -0.0014    3.7503    0.0000 C   0  0
    1.2964    2.9980    0.0000 C   0  0
    2.5967    3.7460    0.0000 C   0  0
    2.5992    5.2460    0.0000 C   0  0
    1.3014    5.9981    0.0000 C   0  0
   -2.6111    0.7486    0.0000 C   0  0
   -1.2964    1.4973    0.0000 N   0  0
    0.0000    0.7486    0.0000 C   0  0
    0.0000   -0.7486    0.0000 C   0  0
   -1.2964   -1.4973    0.0000 C   0  0
   -2.6111   -0.7486    0.0000 N   0  0
    1.2964   -1.4973    0.0000 C   0  0
    2.5929   -0.7486    0.0000 C   0  0
    2.5929    0.7486    0.0000 C   0  0
    1.2964    1.4973    0.0000 N   0  0
    3.6321    1.3486    0.0000 O   0  0
   -3.9122    1.4966    0.0000 N   0  0
   -5.2109    0.7445    0.0000 C   0  0
   -6.5125    1.4901    0.0000 C   0  0
   -7.8091    0.7359    0.0000 C   0  0
   -7.8042   -0.7641    0.0000 C   0  0
   -6.5027   -1.5098    0.0000 C   0  0
   -5.2061   -0.7556    0.0000 C   0  0
   -9.1014   -1.5188    0.0000 N   0  0
  -10.4041   -0.7752    0.0000 C   0  0
  -11.6995   -1.5315    0.0000 C   0  0
  -11.6922   -3.0315    0.0000 N   0  0
  -10.3895   -3.7751    0.0000 C   0  0
   -9.0942   -3.0188    0.0000 C   0  0
  -12.7285   -3.6365    0.0000 C   0  0
   -6.5206    2.9910    0.0000 O   0  0
   -7.5627    3.5860    0.0000 C   0  0
    1.2964   -2.9980    0.0000 C   0  0
    0.5484   -4.2069    0.0000 C   0  0
    2.0484   -4.2044    0.0000 C   0  0
  1  2  1  0
  2  3  2  0
  1  4  2  0
  1  5  1  0
  6  7  1  0
  7  8  2  0
  8  9  1  0
  9 10  2  0
 10 11  1  0
  6 11  2  0
 12 13  1  0
 13 14  2  0
 14 15  1  0
 15 16  2  0
 16 17  1  0
 12 17  2  0
 18 19  2  0
 19 20  1  0
 20 21  1  0
 14 21  1  0
 15 18  1  0
 20 22  2  0
 24 25  1  0
 25 26  2  0
 26 27  1  0
 27 28  2  0
 28 29  1  0
 24 29  2  0
 30 31  1  0
 31 32  1  0
 32 33  1  0
 33 34  1  0
 34 35  1  0
 30 35  1  0
 33 36  1  0
 27 30  1  0
 37 38  1  0
 25 37  1  0
 23 24  1  0
 12 23  1  0
 39 40  1  0
 40 41  1  0
 39 41  1  0
 18 39  1  0
  8 21  1  0
  5  6  1  0
M  END
> <chembl_id>
CHEMBL3752448

$$$$

  SciTegic04091414152D

 44 49  0  0  0  0            999 V2000
    2.0198   -9.3141    0.0000 N   0  0
    2.0186  -10.1417    0.0000 C   0  0
    2.7336  -10.5547    0.0000 N   0  0
    2.7318   -8.9014    0.0000 C   0  0
    3.4473   -9.3105    0.0000 C   0  0
    3.4481  -10.1375    0.0000 C   0  0
    4.1635  -10.5486    0.0000 N   0  0
    4.8786  -10.1338    0.0000 C   0  0
    4.8738   -9.3035    0.0000 N   0  0
    4.1579   -8.8963    0.0000 C   0  0
    1.3036  -10.5538    0.0000 N   0  0
    4.1652  -11.3738    0.0000 C   0  0  1  0  0  0
    5.5949  -10.5436    0.0000 O   0  0
    5.5860   -8.8868    0.0000 C   0  0
    6.3030   -9.2948    0.0000 C   0  0
    6.3034  -10.1196    0.0000 C   0  0
    7.0196  -10.5278    0.0000 C   0  0
    7.7328  -10.1107    0.0000 C   0  0
    7.7250   -9.2814    0.0000 C   0  0
    7.0082   -8.8771    0.0000 C   0  0
    3.4489  -11.7839    0.0000 C   0  0
    3.4502  -12.6083    0.0000 C   0  0
    4.1662  -13.0201    0.0000 C   0  0
    4.8823  -12.6017    0.0000 N   0  0
    4.8774  -11.7786    0.0000 C   0  0
    1.3030  -11.3789    0.0000 C   0  0
    0.5880  -11.7893    0.0000 C   0  0
    0.5870  -12.6137    0.0000 C   0  0
    1.3017  -13.0277    0.0000 C   0  0
    2.0191  -12.6112    0.0000 C   0  0
    2.0165  -11.7882    0.0000 C   0  0
    1.3022  -13.8528    0.0000 N   0  0
    0.5875  -14.2665    0.0000 C   0  0
    0.5860  -15.0880    0.0000 C   0  0
    1.2989  -15.5041    0.0000 N   0  0
    2.0151  -15.0923    0.0000 C   0  0
    2.0184  -14.2645    0.0000 C   0  0
    1.2963  -16.3292    0.0000 C   0  0
   -0.1326  -11.3755    0.0000 O   0  0
   -0.8424  -11.7866    0.0000 C   0  0
    5.5992  -13.0102    0.0000 C   0  0
    5.6038  -13.8354    0.0000 C   0  0
    6.3115  -12.5937    0.0000 O   0  0
    4.8916  -14.2519    0.0000 C   0  0
  1  2  2  0
  2  3  1  0
  3  6  2  0
  5  4  2  0
  4  1  1  0
  5  6  1  0
  6  7  1  0
  7  8  1  0
  8  9  1  0
  9 10  1  0
 10  5  1  0
  2 11  1  0
 12  7  1  6
  8 13  2  0
  9 14  1  0
 14 15  1  0
 15 16  2  0
 16 17  1  0
 17 18  2  0
 18 19  1  0
 19 20  2  0
 20 15  1  0
 12 21  1  0
 21 22  1  0
 22 23  1  0
 23 24  1  0
 24 25  1  0
 25 12  1  0
 11 26  1  0
 26 27  2  0
 27 28  1  0
 28 29  2  0
 29 30  1  0
 30 31  2  0
 31 26  1  0
 29 32  1  0
 32 33  1  0
 32 37  1  0
 33 34  1  0
 34 35  1  0
 35 36  1  0
 36 37  1  0
 35 38  1  0
 27 39  1  0
 39 40  1  0
 24 41  1  0
 41 42  1  0
 41 43  2  0
 42 44  2  0
M  END
> <chembl_id>
CHEMBL3087207

$$$$

  SciTegic12131613492D

 28 32  0  0  0  0            999 V2000
    0.8955    2.0810    0.0000 C   0  0
    1.7138    1.2033    0.0000 C   0  0
    2.8908    1.4370    0.0000 C   0  0
   -1.0028    1.5132    0.0000 N   0  0
   -2.3155    0.7475    0.0000 C   0  0
   -2.3155   -0.7475    0.0000 N   0  0
   -1.0028   -1.5132    0.0000 C   0  0
    0.2917    0.7475    0.0000 C   0  0
    0.2917   -0.7475    0.0000 C   0  0
    1.7138   -1.2033    0.0000 C   0  0
    2.5889    0.0182    0.0000 O   0  0
   -3.6168    1.4950    0.0000 C   0  0
   -4.9669    0.8708    0.0000 C   0  0
   -5.9732    1.9832    0.0000 N   0  0
   -5.2262    3.2840    0.0000 N   0  0
   -3.7582    2.9755    0.0000 C   0  0
   -0.9971   -3.0138    0.0000 N   0  0
   -2.2935   -3.7700    0.0000 C   0  0
   -4.6304   -4.2656    0.0000 N   0  0
   -3.6203   -3.1531    0.0000 N   0  0
   -3.8857   -5.5600    0.0000 C   0  0
   -2.4241   -5.2456    0.0000 C   0  0
   -1.4032   -6.3500    0.0000 C   0  0
   -1.8757   -7.7944    0.0000 C   0  0
   -3.3373   -8.1089    0.0000 C   0  0
   -4.3620   -6.9866    0.0000 C   0  0
   -3.7027   -9.2519    0.0000 F   0  0
   -5.5359   -7.2354    0.0000 Cl  0  0
  2  1  1  0
  3  2  1  0
  8  4  1  0
  4  5  2  0
  5  6  1  0
  6  7  2  0
  7  9  1  0
  8  9  2  0
  9 10  1  0
 10 11  1  0
 11  2  1  0
  2  8  1  0
  5 12  1  0
 12 13  2  0
 13 14  1  0
 14 15  1  0
 15 16  2  0
 16 12  1  0
  7 17  1  0
 17 18  1  0
 18 22  1  0
 21 19  1  0
 19 20  1  0
 20 18  2  0
 21 22  2  0
 22 23  1  0
 23 24  2  0
 24 25  1  0
 25 26  2  0
 26 21  1  0
 25 27  1  0
 26 28  1  0
M  END
> <chembl_id>
CHEMBL3758700

$$$$

  SciTegic04301217312D

 30 32  0  0  0  0            999 V2000
   -1.9681    2.2125    0.0000 C   0  0
   -1.9693    1.3852    0.0000 N   0  0
   -1.2544    0.9723    0.0000 C   0  0
   -0.5380    1.3856    0.0000 N   0  0
   -0.5409    2.2162    0.0000 C   0  0
   -1.2562    2.6253    0.0000 N   0  0
    0.1721    2.6314    0.0000 N   0  0
    0.8881    2.2216    0.0000 C   0  0
    0.8878    1.3989    0.0000 C   0  0
    1.6030    0.9892    0.0000 C   0  0
    2.3169    1.4044    0.0000 C   0  0
    2.3111    2.2337    0.0000 C   0  0
    1.5954    2.6397    0.0000 C   0  0
    3.0335    0.9956    0.0000 F   0  0
   -1.2546    0.1473    0.0000 N   0  0
   -1.9692   -0.2650    0.0000 N   0  0
   -1.9694   -1.0900    0.0000 C   0  0
   -2.6840   -1.5024    0.0000 C   0  0
   -3.3983   -1.0921    0.0000 C   0  0
   -4.1043   -1.5037    0.0000 C   0  0
   -4.1120   -2.3296    0.0000 C   0  0
   -3.3936   -2.7421    0.0000 C   0  0
   -2.6825   -2.3281    0.0000 C   0  0
   -3.4009   -0.2671    0.0000 O   0  0
   -4.8177   -1.0894    0.0000 Br  0  0
   -4.8279   -2.7396    0.0000 O   0  0
   -3.3912   -3.5671    0.0000 Br  0  0
   -2.6827    2.6249    0.0000 N   0  0
   -2.6829    3.4499    0.0000 C   0  0
   -3.3970    2.2122    0.0000 C   0  0
  5  7  1  0
  3 15  1  0
  3  4  2  0
 15 16  1  0
  7  8  1  0
 16 17  2  0
 17 18  1  0
  8  9  2  0
 18 19  2  0
  4  5  1  0
 19 20  1  0
  9 10  1  0
 20 21  2  0
  2  3  1  0
 21 22  1  0
 10 11  2  0
 22 23  2  0
 23 18  1  0
  5  6  2  0
 19 24  1  0
 11 12  1  0
 20 25  1  0
  6  1  1  0
 21 26  1  0
 12 13  2  0
 22 27  1  0
 13  8  1  0
  1 28  1  0
  1  2  2  0
 28 29  1  0
 11 14  1  0
 28 30  1  0
M  END
> <chembl_id>
CHEMBL1946843

$$$$

  SciTegic12201611502D

 30 34  0  0  0  0            999 V2000
   -2.1332   -2.2973    0.0000 N   0  0
   -3.4277   -1.5498    0.0000 C   0  0
   -3.4277    0.0000    0.0000 N   0  0
   -2.1332    0.6928    0.0000 C   0  0
   -0.8205    0.0000    0.0000 C   0  0
    0.4558    0.6928    0.0000 C   0  0
    1.7503    0.0000    0.0000 C   0  0
    1.7503   -1.5498    0.0000 C   0  0
    0.4558   -2.2973    0.0000 C   0  0
   -0.8205   -1.5498    0.0000 C   0  0
    0.4558    2.1879    0.0000 O   0  0
    3.0631    0.6928    0.0000 O   0  0
    3.0631    2.1879    0.0000 C   0  0
    1.7503    2.9537    0.0000 C   0  0
   -2.1454    2.1947    0.0000 N   0  0
    3.0410   -2.3153    0.0000 O   0  0
    3.0239   -3.8160    0.0000 C   0  0
    4.4378   -6.0641    0.0000 O   0  0
    4.3146   -4.5820    0.0000 C   0  0
    5.6721   -3.9744    0.0000 C   0  0
    6.6647   -5.0990    0.0000 C   0  0
    5.9018   -6.3905    0.0000 C   0  0
   -3.4508    2.9353    0.0000 C   0  0
   -3.4653    4.4352    0.0000 C   0  0
   -4.7714    5.1728    0.0000 C   0  0
   -6.0632    4.4104    0.0000 C   0  0
   -6.0489    2.9104    0.0000 C   0  0
   -4.7427    2.1729    0.0000 C   0  0
   -7.1082    5.0004    0.0000 F   0  0
   -4.7829    6.3727    0.0000 Cl  0  0
  1  2  1  0
  2  3  2  0
  3  4  1  0
  4  5  2  0
  5  6  1  0
  6  7  2  0
  7  8  1  0
  8  9  2  0
  9 10  1  0
  1 10  2  0
  5 10  1  0
 12 13  1  0
 13 14  1  0
 11 14  1  0
  6 11  1  0
  7 12  1  0
  4 15  1  0
 16 17  1  0
 18 19  1  0
 19 20  1  0
 20 21  1  0
 21 22  1  0
 18 22  1  0
 17 19  1  0
  8 16  1  0
 23 24  1  0
 24 25  2  0
 25 26  1  0
 26 27  2  0
 27 28  1  0
 23 28  2  0
 26 29  1  0
 25 30  1  0
 15 23  1  0
M  END
> <chembl_id>
CHEMBL3806213

$$$$

  SciTegic12201611502D

 28 31  0  0  0  0            999 V2000
   -2.1332   -2.2973    0.0000 N   0  0
   -3.4277   -1.5498    0.0000 C   0  0
   -3.4277    0.0000    0.0000 N   0  0
   -2.1332    0.6928    0.0000 C   0  0
   -0.8205    0.0000    0.0000 C   0  0
    0.4558    0.6928    0.0000 C   0  0
    1.7503    0.0000    0.0000 C   0  0
    1.7503   -1.5498    0.0000 C   0  0
    0.4558   -2.2973    0.0000 C   0  0
   -0.8205   -1.5498    0.0000 C   0  0
    0.4558    2.1879    0.0000 O   0  0
    3.0631    0.6928    0.0000 O   0  0
    3.0631    2.1879    0.0000 C   0  0
    1.7503    2.9537    0.0000 C   0  0
   -2.1454    2.1947    0.0000 N   0  0
   -3.4508    2.9353    0.0000 C   0  0
   -3.4653    4.4352    0.0000 C   0  0
   -4.7714    5.1728    0.0000 C   0  0
   -6.0632    4.4104    0.0000 C   0  0
   -6.0489    2.9104    0.0000 C   0  0
   -4.7427    2.1729    0.0000 C   0  0
   -4.7889    6.6735    0.0000 O   0  0
   -5.8347    7.2620    0.0000 C   0  0
    3.0410   -2.3153    0.0000 O   0  0
    3.0239   -3.8160    0.0000 C   0  0
    4.3146   -4.5820    0.0000 C   0  0
    4.2976   -6.0827    0.0000 O   0  0
    5.3296   -6.6951    0.0000 C   0  0
  1  2  1  0
  2  3  2  0
  3  4  1  0
  4  5  2  0
  5  6  1  0
  6  7  2  0
  7  8  1  0
  8  9  2  0
  9 10  1  0
  1 10  2  0
  5 10  1  0
 12 13  1  0
 13 14  1  0
 11 14  1  0
  6 11  1  0
  7 12  1  0
  4 15  1  0
 16 17  1  0
 17 18  2  0
 18 19  1  0
 19 20  2  0
 20 21  1  0
 16 21  2  0
 22 23  1  0
 18 22  1  0
 15 16  1  0
 25 26  1  0
 24 25  1  0
 27 28  1  0
 26 27  1  0
  8 24  1  0
M  END
> <chembl_id>
CHEMBL3806066

$$$$

  SciTegic02271217242D

 35 38  0  0  0  0            999 V2000
   12.1872  -18.0110    0.0000 N   0  0
   12.9037  -17.5977    0.0000 C   0  0
   12.9008  -16.7672    0.0000 N   0  0
   12.1854  -16.3580    0.0000 C   0  0
   11.4724  -17.5982    0.0000 C   0  0
   11.4737  -16.7693    0.0000 C   0  0
   10.6857  -16.5119    0.0000 N   0  0
   10.1974  -17.1818    0.0000 C   0  0
   10.6837  -17.8531    0.0000 C   0  0
   12.1836  -15.5330    0.0000 N   0  0
   12.8972  -15.1190    0.0000 C   0  0
   13.6094  -15.5329    0.0000 C   0  0
   14.3225  -15.1195    0.0000 C   0  0
   14.3212  -14.2936    0.0000 C   0  0
   13.6008  -13.8828    0.0000 C   0  0
   12.8906  -14.2986    0.0000 C   0  0
   15.0377  -15.5307    0.0000 Cl  0  0
   15.0342  -13.8786    0.0000 O   0  0
   10.4319  -15.7269    0.0000 C   0  0
   15.7501  -14.2886    0.0000 C   0  0
   15.7501  -15.1136    0.0000 C   0  0
   16.4652  -15.5235    0.0000 C   0  0
   17.1792  -15.1084    0.0000 C   0  0
   17.1736  -14.2792    0.0000 C   0  0
   16.4580  -13.8730    0.0000 C   0  0
   17.8852  -13.8616    0.0000 C   0  0
   18.6025  -14.2691    0.0000 F   0  0
   17.8794  -13.0366    0.0000 F   0  0
   18.5958  -13.4417    0.0000 F   0  0
    9.6252  -15.5541    0.0000 C   0  0
    9.3715  -14.7691    0.0000 O   0  0
    8.5648  -14.5963    0.0000 C   0  0
    8.3111  -13.8113    0.0000 C   0  0
    7.5043  -13.6386    0.0000 O   0  0
    9.3724  -17.1806    0.0000 C   0  0
  6  7  1  0
 13 17  1  0
  7  8  1  0
 14 18  1  0
  8  9  2  0
  7 19  1  0
  9  5  1  0
 18 20  1  0
  4  6  1  0
 20 21  2  0
  4 10  1  0
 21 22  1  0
  5  6  2  0
 22 23  2  0
 10 11  1  0
 23 24  1  0
  1  2  2  0
 24 25  2  0
 25 20  1  0
 11 12  2  0
 24 26  1  0
  5  1  1  0
 26 27  1  0
 12 13  1  0
 26 28  1  0
  2  3  1  0
 26 29  1  0
 13 14  2  0
 19 30  1  0
 30 31  1  0
 14 15  1  0
 31 32  1  0
  3  4  2  0
 32 33  1  0
 15 16  2  0
 33 34  1  0
 16 11  1  0
  8 35  1  0
M  END
> <chembl_id>
CHEMBL1923017

$$$$

  SciTegic04301217312D

 24 26  0  0  0  0            999 V2000
    7.0902    1.6084    0.0000 C   0  0
    7.0891    0.7810    0.0000 C   0  0
    7.8039    0.3681    0.0000 C   0  0
    8.5203    0.7815    0.0000 C   0  0
    8.5175    1.6120    0.0000 C   0  0
    7.8021    2.0211    0.0000 C   0  0
    9.2304    2.0272    0.0000 N   0  0
    9.9464    1.6174    0.0000 C   0  0
   10.6593    2.0326    0.0000 N   0  0
    9.9495    0.7924    0.0000 O   0  0
   11.3753    1.6228    0.0000 N   0  0
   12.0883    2.0380    0.0000 C   0  0
   12.8041    1.6282    0.0000 C   0  0
   12.0851    2.8630    0.0000 O   0  0
   12.7867    0.8035    0.0000 N   0  0
   13.5669    0.5353    0.0000 C   0  0
   14.0631    1.1944    0.0000 C   0  0
   13.5895    1.8699    0.0000 S   0  0
   14.8880    1.1805    0.0000 C   0  0
   15.3120    1.8874    0.0000 C   0  0
   16.1322    1.8665    0.0000 C   0  0
   16.4066    2.6445    0.0000 C   0  0
   15.7515    3.1460    0.0000 S   0  0
   15.0722    2.6778    0.0000 C   0  0
 11 12  1  0
  6  1  1  0
 12 13  1  0
  1  2  2  0
 12 14  2  0
 13 15  2  0
  5  7  1  0
  3  4  2  0
  7  8  1  0
 15 16  1  0
 16 17  2  0
 17 18  1  0
 18 13  1  0
  8  9  1  0
 17 19  1  0
  4  5  1  0
 19 20  1  0
 20 21  1  0
  8 10  2  0
  2  3  1  0
  9 11  1  0
  5  6  2  0
 21 22  2  0
 22 23  1  0
 23 24  1  0
 24 20  2  0
M  END
> <chembl_id>
CHEMBL1944925

$$$$

  SciTegic04091414352D

 33 37  0  0  0  0            999 V2000
   12.9554   -6.8022    0.0000 N   0  0
   13.1644   -6.0117    0.0000 C   0  0
   13.9549   -6.2206    0.0000 C   0  0
   13.7459   -7.0111    0.0000 C   0  0
   12.2486   -7.2134    0.0000 C   0  0
   12.2514   -8.0310    0.0000 O   0  0
   11.5392   -6.8069    0.0000 N   0  0
   14.6616   -5.8094    0.0000 F   0  0
    8.7122   -8.4517    0.0000 N   0  0
    8.0027   -8.0453    0.0000 C   0  0
    7.9999   -7.2276    0.0000 N   0  0
    8.7067   -6.8164    0.0000 C   0  0
    9.4162   -7.2229    0.0000 C   0  0
   10.1229   -6.8117    0.0000 C   0  0
   10.8324   -7.2181    0.0000 C   0  0
   10.8352   -8.0358    0.0000 C   0  0
   10.1284   -8.4470    0.0000 C   0  0
    9.4189   -8.0405    0.0000 C   0  0
   11.5446   -8.4422    0.0000 O   0  0
   11.1428  -10.5195    0.0000 O   0  0
   10.8875   -9.7427    0.0000 C   0  0
   11.5474   -9.2599    0.0000 C   0  0  2  0  0  0
   12.2105   -9.7383    0.0000 C   0  0
   11.9604  -10.5168    0.0000 C   0  0
    8.7040   -5.9987    0.0000 N   0  0
    7.9945   -5.5923    0.0000 C   0  0
    7.2877   -6.0035    0.0000 C   0  0
    6.5782   -5.5970    0.0000 C   0  0
    6.5755   -4.7794    0.0000 C   0  0
    7.2822   -4.3682    0.0000 C   0  0
    7.9917   -4.7746    0.0000 C   0  0
    5.8660   -4.3729    0.0000 F   0  0
    5.8715   -6.0082    0.0000 Cl  0  0
  1  2  1  0
  2  3  1  0
  3  4  1  0
  1  4  1  0
  5  6  2  0
  5  7  1  0
  1  5  1  0
  3  8  1  0
  9 10  1  0
 10 11  2  0
 11 12  1  0
 12 13  2  0
 13 14  1  0
 14 15  2  0
 15 16  1  0
 16 17  2  0
 17 18  1  0
  9 18  2  0
 13 18  1  0
 20 21  1  0
 21 22  1  0
 22 23  1  0
 23 24  1  0
 20 24  1  0
 22 19  1  1
 16 19  1  0
 26 27  1  0
 27 28  2  0
 28 29  1  0
 29 30  2  0
 30 31  1  0
 26 31  2  0
 29 32  1  0
 28 33  1  0
 25 26  1  0
 12 25  1  0
  7 15  1  0
M  END
> <chembl_id>
CHEMBL3092319

$$$$

  SciTegic08011209522D

 51 57  0  0  0  0            999 V2000
    6.8569   -7.6708    0.0000 N   0  0
    6.8557   -8.4982    0.0000 C   0  0
    7.5706   -8.9110    0.0000 N   0  0
    7.5688   -7.2580    0.0000 C   0  0
    8.2841   -7.6672    0.0000 C   0  0
    8.2876   -8.5002    0.0000 C   0  0
    9.0067   -8.9115    0.0000 N   0  0
    9.7271   -8.4943    0.0000 C   0  0
    9.7237   -7.6613    0.0000 N   0  0
    8.9999   -7.2454    0.0000 C   0  0
    9.0107   -9.7331    0.0000 C   0  0
    8.2957  -10.1469    0.0000 C   0  0
    8.2976  -10.9712    0.0000 C   0  0
    9.0138  -11.3826    0.0000 C   0  0
    9.7295  -10.9637    0.0000 C   0  0
    9.7241  -10.1408    0.0000 C   0  0
    6.1409   -8.9101    0.0000 N   0  0
    6.1403   -9.7351    0.0000 C   0  0
    5.4254  -10.1455    0.0000 C   0  0
    5.4244  -10.9697    0.0000 C   0  0
    6.1391  -11.3836    0.0000 C   0  0
    6.8562  -10.9672    0.0000 C   0  0
    6.8537  -10.1444    0.0000 C   0  0
   10.4427   -8.9049    0.0000 O   0  0
   10.4465  -11.3717    0.0000 N   0  0
   10.4517  -12.1967    0.0000 C   0  0
   11.1687  -12.6047    0.0000 C   0  0
    9.7398  -12.6136    0.0000 O   0  0
   11.1739  -13.4297    0.0000 C   0  0
    6.1395  -12.2086    0.0000 N   0  0
   10.4369   -7.2465    0.0000 C   0  0
    5.4226  -12.6182    0.0000 C   0  0
    5.4211  -13.4396    0.0000 C   0  0
    6.1339  -13.8556    0.0000 N   0  0
    6.8500  -13.4439    0.0000 C   0  0
    6.8532  -12.6163    0.0000 C   0  0
    6.1312  -14.6806    0.0000 C   0  0
    4.7117   -9.7316    0.0000 O   0  0
    4.7132   -8.9066    0.0000 C   0  0
   11.1519   -7.6589    0.0000 C   0  0
   11.8646   -7.2449    0.0000 C   0  0
   11.8625   -6.4190    0.0000 C   0  0
   11.1417   -6.0089    0.0000 C   0  0
   10.4320   -6.4253    0.0000 C   0  0
   12.5751   -6.0033    0.0000 O   0  0
   13.2914   -6.4127    0.0000 C   0  0
   13.2925   -7.2386    0.0000 C   0  0
   14.0080   -7.6478    0.0000 C   0  0
   14.7216   -7.2321    0.0000 C   0  0
   14.7153   -6.4029    0.0000 C   0  0
   13.9993   -5.9974    0.0000 C   0  0
  8 24  2  0
 11 12  2  0
 15 25  1  0
  2  3  1  0
 25 26  1  0
 12 13  1  0
 26 27  1  0
  3  6  2  0
 26 28  2  0
 13 14  2  0
 27 29  2  0
  1  2  2  0
 21 30  1  0
 14 15  1  0
  9 31  1  0
 30 32  1  0
  5  4  2  0
 15 16  2  0
 16 11  1  0
  7 11  1  0
  4  1  1  0
 30 36  1  0
 32 33  1  0
 33 34  1  0
 34 35  1  0
 35 36  1  0
  2 17  1  0
 34 37  1  0
  5 10  1  0
 19 38  1  0
 17 18  1  0
 38 39  1  0
  6  7  1  0
 31 40  2  0
 18 19  2  0
 40 41  1  0
  7  8  1  0
 41 42  2  0
 19 20  1  0
 42 43  1  0
  8  9  1  0
 43 44  2  0
 44 31  1  0
 20 21  2  0
 42 45  1  0
  9 10  1  0
 45 46  1  0
 21 22  1  0
 46 47  2  0
  5  6  1  0
 47 48  1  0
 22 23  2  0
 48 49  2  0
 23 18  1  0
 49 50  1  0
 50 51  2  0
 51 46  1  0
M  END
> <chembl_id>
CHEMBL2029440

$$$$

  SciTegic12131615492D

 43 49  0  0  0  0            999 V2000
    3.7345    1.5436    0.0000 C   0  0
    4.8300    2.8133    0.0000 C   0  0
    3.7345    0.0000    0.0000 C   0  0
    6.1246    2.2656    0.0000 C   0  0
    5.2034   -0.5726    0.0000 C   0  0
    6.1246    0.5726    0.0000 C   0  0
    2.5893   -0.5726    0.0000 C   0  0
    3.5602    0.5726    0.0000 C   0  0
    3.5602    2.2656    0.0000 C   0  0
    5.0291    0.0249    0.0000 C   0  0
    2.1833    1.1556    0.0000 N   0  0
   -1.9600    2.9103    0.0000 C   0  0
   -3.1582    2.0079    0.0000 C   0  0
   -2.9757    0.5191    0.0000 C   0  0
   -1.5951   -0.0674    0.0000 C   0  0
   -0.3969    0.8350    0.0000 C   0  0
   -0.5794    2.3239    0.0000 C   0  0
   -4.1727   -0.3863    0.0000 N   0  0
   -3.6292   -4.8490    0.0000 N   0  0
   -2.4140   -3.9479    0.0000 C   0  0
   -2.5938   -2.4615    0.0000 N   0  0
   -3.9881   -1.8757    0.0000 C   0  0
   -5.1860   -2.7751    0.0000 C   0  0
   -6.5630   -2.1876    0.0000 C   0  0
   -7.7601   -3.0865    0.0000 C   0  0
   -7.5803   -4.5730    0.0000 C   0  0
   -6.2033   -5.1605    0.0000 C   0  0
   -5.0062   -4.2615    0.0000 C   0  0
   -9.1394   -2.4948    0.0000 O   0  0
   -9.3176   -1.0046    0.0000 C   0  0
  -10.6968   -0.4129    0.0000 C   0  0
  -10.8750    1.0773    0.0000 C   0  0
  -15.0138    2.8461    0.0000 O   0  0
  -13.8142    3.7467    0.0000 C   0  0
  -12.4345    3.1582    0.0000 C   0  0
  -12.2543    1.6690    0.0000 N   0  0
  -13.4539    0.7684    0.0000 C   0  0
  -14.8336    1.3570    0.0000 C   0  0
   -8.7787   -5.4766    0.0000 O   0  0
   -8.6328   -6.6677    0.0000 C   0  0
    0.9857    0.2510    0.0000 C   0  0
    1.1337   -0.9398    0.0000 O   0  0
   -4.2627    2.4771    0.0000 C   0  0
  1  2  1  0
  1  3  1  0
  2  4  1  0
  3  5  1  0
  4  6  1  0
  5  6  1  0
  7  8  1  0
  3  7  1  0
  2  9  1  0
  6 10  1  0
 10  8  1  0
  8  9  1  0
  8 11  1  0
 12 13  1  0
 13 14  2  0
 14 15  1  0
 15 16  2  0
 16 17  1  0
 12 17  2  0
 19 20  1  0
 20 21  2  0
 21 22  1  0
 22 23  2  0
 23 24  1  0
 24 25  2  0
 25 26  1  0
 26 27  2  0
 27 28  1  0
 19 28  2  0
 23 28  1  0
 30 31  1  0
 31 32  1  0
 29 30  1  0
 33 34  1  0
 34 35  1  0
 35 36  1  0
 36 37  1  0
 37 38  1  0
 33 38  1  0
 32 36  1  0
 25 29  1  0
 39 40  1  0
 26 39  1  0
 18 22  1  0
 14 18  1  0
 16 41  1  0
 41 11  1  0
 41 42  2  0
 13 43  1  0
M  END
> <chembl_id>
CHEMBL3763701

$$$$

  SciTegic08011209522D

 41 45  0  0  0  0            999 V2000
   -2.7348    1.9167    0.0000 N   0  0
   -2.7359    1.0893    0.0000 C   0  0
   -2.0211    0.6765    0.0000 N   0  0
   -2.0229    2.3295    0.0000 C   0  0
   -1.3075    1.9203    0.0000 C   0  0
   -1.3041    1.0873    0.0000 C   0  0
   -0.5849    0.6760    0.0000 N   0  0
    0.1355    1.0932    0.0000 C   0  0
    0.1320    1.9262    0.0000 N   0  0
   -0.5918    2.3421    0.0000 C   0  0
   -0.5809   -0.1456    0.0000 C   0  0
   -1.2959   -0.5594    0.0000 C   0  0
   -1.2940   -1.3837    0.0000 C   0  0
   -0.5779   -1.7951    0.0000 C   0  0
    0.1378   -1.3762    0.0000 C   0  0
    0.1324   -0.5533    0.0000 C   0  0
   -3.4507    0.6774    0.0000 N   0  0
   -3.4514   -0.1476    0.0000 C   0  0
   -4.1663   -0.5580    0.0000 C   0  0
   -4.1673   -1.3822    0.0000 C   0  0
   -3.4526   -1.7961    0.0000 C   0  0
   -2.7354   -1.3797    0.0000 C   0  0
   -2.7380   -0.5569    0.0000 C   0  0
    0.8511    0.6826    0.0000 O   0  0
    0.8548   -1.7842    0.0000 N   0  0
    0.8600   -2.6092    0.0000 C   0  0
    1.5770   -3.0172    0.0000 C   0  0
    0.1481   -3.0261    0.0000 O   0  0
    1.5822   -3.8422    0.0000 C   0  0
   -3.4522   -2.6211    0.0000 N   0  0
    0.8452    2.3410    0.0000 C   0  0
   -4.1691   -3.0307    0.0000 C   0  0
   -4.1706   -3.8521    0.0000 C   0  0
   -3.4577   -4.2681    0.0000 N   0  0
   -2.7417   -3.8564    0.0000 C   0  0
   -2.7385   -3.0288    0.0000 C   0  0
   -3.4604   -5.0931    0.0000 C   0  0
   -4.8800   -0.1441    0.0000 O   0  0
   -4.8784    0.6809    0.0000 C   0  0
    1.5610    1.9307    0.0000 C   0  0
    0.8427    3.1660    0.0000 C   0  0
  7  8  1  0
 19 20  1  0
  8  9  1  0
 20 21  2  0
  9 10  1  0
 21 22  1  0
  5  6  1  0
 22 23  2  0
 23 18  1  0
  8 24  2  0
 11 12  2  0
 15 25  1  0
  2  3  1  0
 25 26  1  0
 12 13  1  0
 26 27  1  0
  3  6  2  0
 26 28  2  0
 13 14  2  0
 27 29  2  0
  1  2  2  0
 21 30  1  0
 14 15  1  0
  9 31  1  0
 30 32  1  0
  5  4  2  0
 15 16  2  0
 16 11  1  0
  7 11  1  0
  4  1  1  0
 30 36  1  0
 32 33  1  0
 33 34  1  0
 34 35  1  0
 35 36  1  0
  2 17  1  0
 34 37  1  0
  5 10  1  0
 19 38  1  0
 17 18  1  0
 38 39  1  0
  6  7  1  0
 31 40  1  0
 18 19  2  0
 31 41  1  0
M  END
> <chembl_id>
CHEMBL2029434

$$$$

  SciTegic12201611502D

 25 28  0  0  0  0            999 V2000
   -2.1332   -2.2973    0.0000 N   0  0
   -3.4277   -1.5498    0.0000 C   0  0
   -3.4277    0.0000    0.0000 N   0  0
   -2.1332    0.6928    0.0000 C   0  0
   -0.8205    0.0000    0.0000 C   0  0
    0.4558    0.6928    0.0000 C   0  0
    1.7503    0.0000    0.0000 C   0  0
    1.7503   -1.5498    0.0000 C   0  0
    0.4558   -2.2973    0.0000 C   0  0
   -0.8205   -1.5498    0.0000 C   0  0
    0.4558    2.1879    0.0000 O   0  0
    3.0631    0.6928    0.0000 O   0  0
    3.0631    2.1879    0.0000 C   0  0
    1.7503    2.9537    0.0000 C   0  0
   -2.1454    2.1947    0.0000 N   0  0
    3.0410   -2.3153    0.0000 O   0  0
    3.0274   -3.5152    0.0000 C   0  0
   -3.4508    2.9353    0.0000 C   0  0
   -3.4653    4.4352    0.0000 C   0  0
   -4.7714    5.1728    0.0000 C   0  0
   -6.0632    4.4104    0.0000 C   0  0
   -6.0489    2.9104    0.0000 C   0  0
   -4.7427    2.1729    0.0000 C   0  0
   -7.1082    5.0004    0.0000 F   0  0
   -4.7829    6.3727    0.0000 Cl  0  0
  1  2  1  0
  2  3  2  0
  3  4  1  0
  4  5  2  0
  5  6  1  0
  6  7  2  0
  7  8  1  0
  8  9  2  0
  9 10  1  0
  1 10  2  0
  5 10  1  0
 12 13  1  0
 13 14  1  0
 11 14  1  0
  6 11  1  0
  7 12  1  0
  4 15  1  0
 16 17  1  0
  8 16  1  0
 18 19  1  0
 19 20  2  0
 20 21  1  0
 21 22  2  0
 22 23  1  0
 18 23  2  0
 21 24  1  0
 20 25  1  0
 15 18  1  0
M  END
> <chembl_id>
CHEMBL3806292

$$$$

  SciTegic04191617032D

 34 38  0  0  0  0            999 V2000
    6.1201   -2.1080    0.0000 C   0  0
    2.5889    0.0182    0.0000 N   0  0
    0.2917    0.7475    0.0000 C   0  0
    0.2917   -0.7475    0.0000 C   0  0
    3.6552   -2.9294    0.0000 C   0  0
    6.5944   -3.5310    0.0000 N   0  0
    4.6506   -1.8071    0.0000 C   0  0
    9.1030    1.2625    0.0000 N   0  0
    7.1159   -0.9852    0.0000 N   0  0
    8.5860   -1.2836    0.0000 C   0  0
    9.5795   -0.1598    0.0000 C   0  0
    1.7138    1.2033    0.0000 N   0  0
   -2.3155    0.7475    0.0000 C   0  0
   -2.3155   -0.7475    0.0000 C   0  0
    2.1855   -2.6254    0.0000 N   0  0
    9.8978    2.1616    0.0000 C   0  0
    6.6395    0.4372    0.0000 C   0  0
   -1.0028    1.5132    0.0000 C   0  0
    7.6330    1.5610    0.0000 C   0  0
    1.7138   -1.2033    0.0000 C   0  0
   -1.0028   -1.5132    0.0000 C   0  0
    4.1295   -4.3524    0.0000 N   0  0
    5.5991   -4.6533    0.0000 C   0  0
    6.0735   -6.0770    0.0000 C   0  0
    7.5426   -6.3803    0.0000 C   0  0
    8.0146   -7.8041    0.0000 C   0  0
    7.0175   -8.9248    0.0000 C   0  0
    5.5485   -8.6216    0.0000 C   0  0
    5.0765   -7.1978    0.0000 C   0  0
    9.4838   -8.1105    0.0000 N   0  0
    9.9540   -9.5358    0.0000 C   0  0
   11.4232   -9.8421    0.0000 C   0  0
    9.1548  -10.4309    0.0000 O   0  0
   11.7992  -10.9817    0.0000 C   0  0
  4 21  1  0
  9 10  1  0
  3  4  2  0
  2 20  2  0
  6 23  2  0
  1  6  1  0
 19  8  1  0
  8 11  1  0
  9 17  1  0
 13 18  2  0
 12  2  1  0
 23 22  1  0
  8 16  1  0
 11 10  1  0
 17 19  1  0
  5 15  1  0
 14 13  1  0
 18  3  1  0
 15 20  1  0
  3 12  1  0
  1  9  1  0
 22  5  2  0
  5  7  1  0
 21 14  2  0
  7  1  2  0
 20  4  1  0
 24 25  2  0
 25 26  1  0
 26 27  2  0
 27 28  1  0
 28 29  2  0
 29 24  1  0
 23 24  1  0
 26 30  1  0
 30 31  1  0
 31 32  1  0
 31 33  2  0
 32 34  2  0
M  END
> <chembl_id>
CHEMBL3604942

$$$$

  SciTegic04191617032D

 36 39  0  0  0  0            999 V2000
    1.2990   -0.7500    0.0000 C   0  0
    1.2990    0.7500    0.0000 C   0  0
    0.0000    1.5000    0.0000 N   0  0
   -1.2990    0.7500    0.0000 C   0  0
   -1.2990   -0.7500    0.0000 N   0  0
    0.0000   -1.5000    0.0000 C   0  0
    0.0031   -3.0008    0.0000 N   0  0
    1.3039   -3.7494    0.0000 C   0  0
    1.4469   -5.2297    0.0000 C   0  0
    2.9152   -5.5365    0.0000 C   0  0
    3.6607   -4.2349    0.0000 N   0  0
    2.6532   -3.1236    0.0000 N   0  0
   -2.6003    1.4977    0.0000 O   0  0
   -3.8990    0.7455    0.0000 C   0  0
   -5.2007    1.4909    0.0000 C   0  0
   -6.4972    0.7364    0.0000 C   0  0
   -6.4920   -0.7636    0.0000 C   0  0
   -5.1903   -1.5091    0.0000 C   0  0
   -3.8939   -0.7546    0.0000 C   0  0
    2.5987    1.5004    0.0000 N   0  0
    3.8991    0.7525    0.0000 C   0  0
    5.1969    1.5046    0.0000 C   0  0
    5.1945    3.0046    0.0000 N   0  0
    3.8943    3.7525    0.0000 C   0  0
    2.5964    3.0004    0.0000 C   0  0
    6.2328    3.6062    0.0000 C   0  0
    3.4071   -6.6311    0.0000 C   0  0
   -7.7876   -1.5212    0.0000 N   0  0
   -7.7802   -3.0220    0.0000 C   0  0
   -9.0758   -3.7796    0.0000 C   0  0
   -6.7379   -3.6166    0.0000 O   0  0
   -9.0685   -5.2804    0.0000 C   0  0
  -10.3641   -6.0379    0.0000 C   0  0
  -10.3567   -7.5387    0.0000 N   0  0
  -11.3926   -8.1445    0.0000 C   0  0
   -9.3144   -8.1333    0.0000 C   0  0
  1  2  2  0
  2  3  1  0
  3  4  2  0
  4  5  1  0
  5  6  2  0
  6  1  1  0
  6  7  1  0
  7  8  1  0
  8  9  1  0
  9 10  2  0
 10 11  1  0
 11 12  1  0
 12  8  2  0
  4 13  1  0
 13 14  1  0
 14 15  2  0
 15 16  1  0
 16 17  2  0
 17 18  1  0
 18 19  2  0
 19 14  1  0
  2 20  1  0
 20 21  1  0
 20 25  1  0
 21 22  1  0
 22 23  1  0
 23 24  1  0
 24 25  1  0
 23 26  1  0
 10 27  1  0
 17 28  1  0
 28 29  1  0
 29 30  1  0
 29 31  2  0
 30 32  2  0
 32 33  1  0
 33 34  1  0
 34 35  1  0
 34 36  1  0
M  END
> <chembl_id>
CHEMBL3604935

$$$$

  SciTegic04091414352D

 35 38  0  0  0  0            999 V2000
   11.7397   -6.2362    0.0000 S   0  0
   12.5569   -6.2351    0.0000 O   0  0
   12.1473   -5.5280    0.0000 O   0  0
    8.1990   -5.8322    0.0000 N   0  0
    8.9076   -6.2401    0.0000 C   0  0
    8.9087   -7.0578    0.0000 O   0  0
    9.6152   -5.8304    0.0000 N   0  0
   10.3238   -6.2383    0.0000 C   0  0
   11.0314   -5.8285    0.0000 C   0  0
    5.3686   -7.4712    0.0000 N   0  0
    4.6599   -7.0633    0.0000 C   0  0
    4.6589   -6.2456    0.0000 N   0  0
    5.3665   -5.8359    0.0000 C   0  0
    6.0751   -6.2438    0.0000 C   0  0
    6.7827   -5.8340    0.0000 C   0  0
    7.4914   -6.2420    0.0000 C   0  0
    7.4924   -7.0596    0.0000 C   0  0
    6.7848   -7.4694    0.0000 C   0  0
    6.0762   -7.0615    0.0000 C   0  0
    8.2011   -7.4675    0.0000 O   0  0
    7.7949   -9.5440    0.0000 O   0  0
    7.5413   -8.7667    0.0000 C   0  0
    8.2021   -8.2852    0.0000 C   0  0  2  0  0  0
    8.8643   -8.7650    0.0000 C   0  0
    8.6126   -9.5429    0.0000 C   0  0
    5.3654   -5.0182    0.0000 N   0  0
    4.6568   -4.6103    0.0000 C   0  0
    3.9492   -5.0201    0.0000 C   0  0
    3.2405   -4.6121    0.0000 C   0  0
    3.2395   -3.7945    0.0000 C   0  0
    3.9470   -3.3847    0.0000 C   0  0
    4.6557   -3.7926    0.0000 C   0  0
    2.5308   -3.3866    0.0000 F   0  0
    2.5329   -5.0219    0.0000 Cl  0  0
   11.7407   -7.0534    0.0000 C   0  0
  2  1  2  0
  1  3  2  0
  4  5  1  0
  5  6  2  0
  5  7  1  0
  8  9  1  0
  7  8  1  0
 10 11  1  0
 11 12  2  0
 12 13  1  0
 13 14  2  0
 14 15  1  0
 15 16  2  0
 16 17  1  0
 17 18  2  0
 18 19  1  0
 10 19  2  0
 14 19  1  0
 21 22  1  0
 22 23  1  0
 23 24  1  0
 24 25  1  0
 21 25  1  0
 23 20  1  1
 17 20  1  0
 27 28  1  0
 28 29  2  0
 29 30  1  0
 30 31  2  0
 31 32  1  0
 27 32  2  0
 30 33  1  0
 29 34  1  0
 26 27  1  0
 13 26  1  0
  4 16  1  0
  9  1  1  0
  1 35  1  0
M  END
> <chembl_id>
CHEMBL3092324

$$$$

  SciTegic06051313552D

 25 28  0  0  0  0            999 V2000
    1.3936   -7.6849    0.0000 C   0  0
    1.3924   -8.5044    0.0000 C   0  0
    2.1005   -8.9134    0.0000 C   0  0
    2.8101   -8.5039    0.0000 C   0  0
    2.8073   -7.6812    0.0000 C   0  0
    2.0987   -7.2760    0.0000 C   0  0
    3.4880   -7.2291    0.0000 C   0  0
    4.2553   -7.5103    0.0000 C   0  0
    4.7598   -6.8674    0.0000 C   0  0
    4.3039   -6.1895    0.0000 N   0  0
    3.5184   -6.4125    0.0000 N   0  0
    4.7095   -5.4800    0.0000 C   0  0
    5.5266   -5.4765    0.0000 N   0  0
    4.2978   -4.7741    0.0000 S   0  0
    5.5743   -6.8976    0.0000 C   0  0
    6.8203   -6.2343    0.0000 C   0  0
    6.0057   -6.2075    0.0000 C   0  0
    7.2070   -6.9590    0.0000 C   0  0
    6.7714   -7.6495    0.0000 C   0  0
    5.9563   -7.6185    0.0000 C   0  0
    5.5238   -8.3078    0.0000 C   0  0
    5.9052   -9.0285    0.0000 C   0  0
    6.7235   -9.0556    0.0000 C   0  0
    7.1523   -8.3656    0.0000 C   0  0
    0.6844   -8.9124    0.0000 Br  0  0
  1  2  2  0
  2  3  1  0
  3  4  2  0
  4  5  1  0
  5  6  2  0
  6  1  1  0
  7  8  1  0
  8  9  1  0
  9 10  1  0
 10 11  1  0
 11  7  2  0
  5  7  1  0
 10 12  1  0
 12 13  1  0
 12 14  2  0
 15 20  2  0
 18 16  1  0
 16 17  2  0
 17 15  1  0
  9 15  1  0
 18 19  2  0
 19 20  1  0
 20 21  1  0
 21 22  2  0
 22 23  1  0
 23 24  2  0
 24 19  1  0
  2 25  1  0
M  END
> <chembl_id>
CHEMBL2325105

$$$$

  SciTegic06061310022D

 44 51  0  0  0  0            999 V2000
    8.3470   -6.5148    0.0000 N   0  0
    8.8991   -7.1279    0.0000 C   0  0
    8.6441   -7.9125    0.0000 N   0  0
    7.5400   -6.6863    0.0000 C   0  0
    7.2851   -7.4710    0.0000 C   0  0
    7.8371   -8.0841    0.0000 C   0  0
    7.4246   -8.7985    0.0000 N   0  0
    6.6177   -8.6270    0.0000 N   0  0
    6.5314   -7.8065    0.0000 C   0  0
    6.9880   -6.0732    0.0000 N   0  0
    5.8170   -7.3940    0.0000 C   0  0
    5.1025   -7.8065    0.0000 C   0  0
    5.1025   -6.1565    0.0000 C   0  0
    5.8170   -6.5690    0.0000 C   0  0
    7.7602   -9.5522    0.0000 C   0  0  1  0  0  0
    8.5807   -9.6384    0.0000 C   0  0
    8.9162  -10.3921    0.0000 C   0  0
    8.4313  -11.0596    0.0000 C   0  0  1  0  0  0
    7.6108  -10.9733    0.0000 C   0  0
    7.2753  -10.2196    0.0000 C   0  0
    8.7669  -11.8132    0.0000 N   0  0
    9.5874  -11.8995    0.0000 C   0  0
    9.9229  -12.6531    0.0000 C   0  0
    9.4380  -13.3206    0.0000 N   0  0
    8.6175  -13.2343    0.0000 C   0  0
    8.2819  -12.4807    0.0000 C   0  0
    4.3880   -6.5690    0.0000 C   0  0
    4.3880   -7.3940    0.0000 C   0  0
    3.6034   -7.6490    0.0000 N   0  0
    3.1185   -6.9815    0.0000 C   0  0
    3.6034   -6.3141    0.0000 N   0  0
    2.2935   -6.9815    0.0000 C   0  0
    1.8810   -6.2671    0.0000 C   0  0
    1.0560   -6.2671    0.0000 C   0  0
    0.6435   -5.5526    0.0000 C   0  0
    1.0560   -4.8381    0.0000 C   0  0
    1.8810   -4.8381    0.0000 C   0  0
    2.2935   -5.5526    0.0000 C   0  0
    3.1185   -5.5526    0.0000 O   0  0
    3.5310   -4.8381    0.0000 C   0  0
    9.7735  -14.0743    0.0000 C   0  0
   10.5940  -14.1605    0.0000 C   0  0
   11.2615  -14.6454    0.0000 C   0  0
   11.3477  -13.8249    0.0000 C   0  0
 15  7  1  1
 21 22  1  0
  4  1  1  0
  4 10  1  0
  5  6  1  0
 11 12  2  0
 12 28  1  0
 21 26  1  0
 22 23  1  0
 23 24  1  0
 24 25  1  0
 25 26  1  0
 18 21  1  6
 27 28  2  0
  2  3  1  0
 27 13  1  0
  3  6  2  0
 13 14  2  0
 14 11  1  0
 28 29  1  0
 29 30  1  0
 30 31  2  0
 31 27  1  0
  9 11  1  0
 30 32  1  0
 15 16  1  0
 32 33  1  0
  1  2  2  0
 33 34  2  0
  5  4  2  0
 34 35  1  0
  6  7  1  0
 35 36  2  0
  7  8  1  0
 36 37  1  0
  8  9  2  0
 37 38  2  0
 38 33  1  0
  9  5  1  0
 38 39  1  0
 15 20  1  0
 39 40  1  0
 16 17  1  0
 24 41  1  0
 17 18  1  0
 41 42  1  0
 43 42  1  0
 44 43  1  0
 42 44  1  0
 18 19  1  0
 19 20  1  0
M  END
> <chembl_id>
CHEMBL446250

$$$$

  SciTegic12161615052D

 31 34  0  0  0  0            999 V2000
    1.2990   -0.7500    0.0000 C   0  0
    1.2990    0.7500    0.0000 C   0  0
    0.0000    1.5000    0.0000 C   0  0
   -1.2990    0.7500    0.0000 C   0  0
   -1.2990   -0.7500    0.0000 C   0  0
    0.0000   -1.5000    0.0000 N   0  0
    2.5972    1.5031    0.0000 C   0  0
    3.6375    0.9049    0.0000 O   0  0
    2.5951    3.0039    0.0000 N   0  0
    2.3383   -1.3500    0.0000 O   0  0
    3.8933    3.7570    0.0000 C   0  0
    3.8933    5.2571    0.0000 C   0  0
    5.1924    6.0071    0.0000 C   0  0
    6.4914    5.2571    0.0000 C   0  0
    6.4915    3.7571    0.0000 C   0  0
    5.1925    3.0071    0.0000 C   0  0
    7.7911    6.0075    0.0000 N   0  0
    7.7935    7.5076    0.0000 C   0  0
    9.0937    8.2556    0.0000 C   0  0
   10.3916    7.5036    0.0000 N   0  0
   10.3893    6.0036    0.0000 C   0  0
    9.0891    5.2556    0.0000 C   0  0
   11.4318    8.1019    0.0000 C   0  0
   -0.0031    3.0008    0.0000 N   0  0
   -1.3039    3.7494    0.0000 C   0  0
   -1.3092    5.2494    0.0000 C   0  0
   -2.6108    5.9949    0.0000 C   0  0
   -3.9073    5.2404    0.0000 N   0  0
   -3.9021    3.7404    0.0000 C   0  0
   -2.6005    2.9949    0.0000 N   0  0
   -4.9392    3.1368    0.0000 N   0  0
  1  2  1  0
  2  3  2  0
  3  4  1  0
  4  5  2  0
  5  6  1  0
  1  6  1  0
  7  8  2  0
  7  9  1  0
  2  7  1  0
  1 10  2  0
 11 12  1  0
 12 13  2  0
 13 14  1  0
 14 15  2  0
 15 16  1  0
 11 16  2  0
 17 18  1  0
 18 19  1  0
 19 20  1  0
 20 21  1  0
 21 22  1  0
 17 22  1  0
 20 23  1  0
 14 17  1  0
  9 11  1  0
  3 24  1  0
 24 25  1  0
 25 26  2  0
 26 27  1  0
 27 28  2  0
 28 29  1  0
 29 30  2  0
 30 25  1  0
 29 31  1  0
M  END
> <chembl_id>
CHEMBL3781993

$$$$

  SciTegic12131613492D

 27 31  0  0  0  0            999 V2000
    0.8955    2.0810    0.0000 C   0  0
    1.7138    1.2033    0.0000 C   0  0
    2.8908    1.4370    0.0000 C   0  0
   -1.0028    1.5132    0.0000 N   0  0
   -2.3155    0.7475    0.0000 C   0  0
   -2.3155   -0.7475    0.0000 N   0  0
   -1.0028   -1.5132    0.0000 C   0  0
    0.2917    0.7475    0.0000 C   0  0
    0.2917   -0.7475    0.0000 C   0  0
    1.7138   -1.2033    0.0000 C   0  0
    2.5889    0.0182    0.0000 O   0  0
   -3.6168    1.4950    0.0000 C   0  0
   -4.9669    0.8708    0.0000 C   0  0
   -5.9732    1.9832    0.0000 N   0  0
   -5.2262    3.2840    0.0000 N   0  0
   -3.7582    2.9755    0.0000 C   0  0
   -0.9971   -3.0138    0.0000 N   0  0
   -2.2935   -3.7700    0.0000 C   0  0
   -4.6304   -4.2656    0.0000 N   0  0
   -3.6203   -3.1531    0.0000 N   0  0
   -3.8857   -5.5600    0.0000 C   0  0
   -2.4241   -5.2456    0.0000 C   0  0
   -1.4032   -6.3500    0.0000 C   0  0
   -1.8757   -7.7944    0.0000 C   0  0
   -3.3373   -8.1089    0.0000 C   0  0
   -4.3620   -6.9866    0.0000 C   0  0
    0.0446   -3.6095    0.0000 C   0  0
  2  1  1  0
  3  2  1  0
  8  4  1  0
  4  5  2  0
  5  6  1  0
  6  7  2  0
  7  9  1  0
  8  9  2  0
  9 10  1  0
 10 11  1  0
 11  2  1  0
  2  8  1  0
  5 12  1  0
 12 13  2  0
 13 14  1  0
 14 15  1  0
 15 16  2  0
 16 12  1  0
  7 17  1  0
 17 18  1  0
 18 22  1  0
 21 19  1  0
 19 20  1  0
 20 18  2  0
 21 22  2  0
 22 23  1  0
 23 24  2  0
 24 25  1  0
 25 26  2  0
 26 21  1  0
 17 27  1  0
M  END
> <chembl_id>
CHEMBL3758981

$$$$

  Mrv0541 04051115152D          

 24 27  0  0  0  0            999 V2000
    0.1175    3.0712    0.0000 C   0  0  0  0  0  0  0  0  0  0  0  0
   -0.6175    3.4457    0.0000 C   0  0  0  0  0  0  0  0  0  0  0  0
   -0.9921    2.7106    0.0000 C   0  0  0  0  0  0  0  0  0  0  0  0
   -0.2570    2.3361    0.0000 C   0  0  0  0  0  0  0  0  0  0  0  0
   -0.0021    1.5515    0.0000 N   0  0  0  0  0  0  0  0  0  0  0  0
   -0.4870    0.8840    0.0000 N   0  0  0  0  0  0  0  0  0  0  0  0
    0.7826    1.2965    0.0000 C   0  0  0  0  0  0  0  0  0  0  0  0
    1.4970    1.7090    0.0000 N   0  0  0  0  0  0  0  0  0  0  0  0
    2.2115    1.2965    0.0000 C   0  0  0  0  0  0  0  0  0  0  0  0
    2.2115    0.4715    0.0000 N   0  0  0  0  0  0  0  0  0  0  0  0
    1.4970    0.0590    0.0000 C   0  0  0  0  0  0  0  0  0  0  0  0
    1.4970   -0.7660    0.0000 N   0  0  0  0  0  0  0  0  0  0  0  0
    0.7826    0.4715    0.0000 C   0  0  0  0  0  0  0  0  0  0  0  0
   -0.0021    0.2166    0.0000 C   0  0  0  0  0  0  0  0  0  0  0  0
   -0.2570   -0.5680    0.0000 C   0  0  0  0  0  0  0  0  0  0  0  0
   -1.0640   -0.7395    0.0000 C   0  0  0  0  0  0  0  0  0  0  0  0
    0.2950   -1.1811    0.0000 C   0  0  0  0  0  0  0  0  0  0  0  0
    0.0401   -1.9657    0.0000 C   0  0  0  0  0  0  0  0  0  0  0  0
   -0.7669   -2.1373    0.0000 C   0  0  0  0  0  0  0  0  0  0  0  0
   -1.0218   -2.9219    0.0000 O   0  0  0  0  0  0  0  0  0  0  0  0
   -0.4698   -3.5350    0.0000 C   0  0  0  0  0  0  0  0  0  0  0  0
   -1.3189   -1.5242    0.0000 C   0  0  0  0  0  0  0  0  0  0  0  0
   -2.1259   -1.6957    0.0000 O   0  0  0  0  0  0  0  0  0  0  0  0
   -2.3808   -2.4803    0.0000 C   0  0  0  0  0  0  0  0  0  0  0  0
  2  1  1  0  0  0  0
  1  4  1  0  0  0  0
  2  3  1  0  0  0  0
  3  4  1  0  0  0  0
  4  5  1  0  0  0  0
  6  5  1  0  0  0  0
  7  5  1  0  0  0  0
 14  6  2  0  0  0  0
  7  8  2  0  0  0  0
  7 13  1  0  0  0  0
  9  8  1  0  0  0  0
  9 10  2  0  0  0  0
 11 10  1  0  0  0  0
 11 12  1  0  0  0  0
 13 11  2  0  0  0  0
 13 14  1  0  0  0  0
 15 14  1  0  0  0  0
 16 15  2  0  0  0  0
 17 15  1  0  0  0  0
 16 22  1  0  0  0  0
 17 18  2  0  0  0  0
 18 19  1  0  0  0  0
 19 20  1  0  0  0  0
 19 22  2  0  0  0  0
 21 20  1  0  0  0  0
 22 23  1  0  0  0  0
 24 23  1  0  0  0  0
M  END
> <chembl_id>
CHEMBL1233881

$$$$

  SciTegic11131810392D

 40 43  0  0  0  0            999 V2000
    3.6387   -0.8963    0.0000 C   0  0
    2.6003   -1.4977    0.0000 O   0  0
    1.2990   -0.7500    0.0000 C   0  0
    1.2990    0.7500    0.0000 C   0  0
    0.0000    1.5000    0.0000 C   0  0
   -1.2990    0.7500    0.0000 C   0  0
   -1.2990   -0.7500    0.0000 C   0  0
    0.0000   -1.5000    0.0000 C   0  0
   -0.0031   -3.0008    0.0000 N   0  0
   -1.3039   -3.7494    0.0000 C   0  0
   -1.3092   -5.2494    0.0000 N   0  0
   -2.6108   -5.9949    0.0000 C   0  0
   -3.9072   -5.2404    0.0000 C   0  0
   -3.9020   -3.7404    0.0000 C   0  0
   -5.1977   -2.9829    0.0000 O   0  0
   -5.1903   -1.4821    0.0000 C   0  0
   -6.4841   -0.7230    0.0000 C   0  0
   -6.4738    0.7769    0.0000 C   0  0
   -5.1696    1.5179    0.0000 C   0  0
   -3.8758    0.7590    0.0000 C   0  0
   -2.5693    1.4977    0.0000 N   0  0
   -1.2759    0.7365    0.0000 C   0  0
   -1.2862   -0.4635    0.0000 O   0  0
    0.0306    1.4752    0.0000 C   0  0
    1.0648    0.8666    0.0000 C   0  0
   -3.8861   -0.7410    0.0000 C   0  0
   -2.6004   -2.9949    0.0000 N   0  0
   -5.2096   -5.9864    0.0000 C   0  0
   -5.2145   -7.1863    0.0000 F   0  0
   -6.2465   -5.3824    0.0000 F   0  0
   -6.2512   -6.5823    0.0000 F   0  0
    0.0000    3.0008    0.0000 N   0  0
    1.2978    3.7529    0.0000 C   0  0
    1.2954    5.2529    0.0000 C   0  0
   -0.0048    6.0009    0.0000 N   0  0
   -1.3026    5.2488    0.0000 C   0  0
   -1.3002    3.7488    0.0000 C   0  0
   -0.0103    7.5017    0.0000 C   0  0
   -1.0513    8.0986    0.0000 O   0  0
    1.0270    8.1052    0.0000 C   0  0
  1  2  1  0
  2  3  1  0
  3  4  2  0
  4  5  1  0
  5  6  2  0
  6  7  1  0
  7  8  2  0
  8  3  1  0
  8  9  1  0
  9 10  1  0
 10 11  2  0
 11 12  1  0
 12 13  2  0
 13 14  1  0
 14 15  1  0
 15 16  1  0
 16 17  2  0
 17 18  1  0
 18 19  2  0
 19 20  1  0
 20 21  1  0
 21 22  1  0
 22 23  2  0
 22 24  1  0
 24 25  2  0
 20 26  2  0
 26 16  1  0
 14 27  2  0
 27 10  1  0
 13 28  1  0
 28 29  1  0
 28 30  1  0
 28 31  1  0
  5 32  1  0
 32 33  1  0
 33 34  1  0
 34 35  1  0
 35 36  1  0
 36 37  1  0
 37 32  1  0
 35 38  1  0
 38 39  2  0
 38 40  1  0
M  END
> <chembl_id>
CHEMBL3699588

$$$$

  SciTegic04191617032D

 32 35  0  0  0  0            999 V2000
    1.2990   -0.7500    0.0000 C   0  0
    1.2990    0.7500    0.0000 C   0  0
    0.0000    1.5000    0.0000 N   0  0
   -1.2990    0.7500    0.0000 C   0  0
   -1.2990   -0.7500    0.0000 N   0  0
    0.0000   -1.5000    0.0000 C   0  0
    0.0031   -3.0008    0.0000 N   0  0
    1.3039   -3.7494    0.0000 C   0  0
    1.4469   -5.2297    0.0000 C   0  0
    2.9152   -5.5365    0.0000 C   0  0
    3.6607   -4.2349    0.0000 N   0  0
    2.6532   -3.1236    0.0000 N   0  0
    3.4071   -6.6311    0.0000 C   0  0
   -2.6003    1.4977    0.0000 O   0  0
   -3.8990    0.7455    0.0000 C   0  0
   -3.8939   -0.7546    0.0000 C   0  0
   -5.1903   -1.5091    0.0000 C   0  0
   -6.4920   -0.7636    0.0000 C   0  0
   -6.4972    0.7364    0.0000 C   0  0
   -5.2007    1.4909    0.0000 C   0  0
   -5.2091    2.9917    0.0000 N   0  0
   -6.5125    3.7357    0.0000 C   0  0
   -6.5208    5.2365    0.0000 C   0  0
   -7.5486    3.1303    0.0000 O   0  0
   -7.5630    5.8314    0.0000 C   0  0
    2.5987    1.5004    0.0000 N   0  0
    3.8991    0.7525    0.0000 C   0  0
    5.1969    1.5046    0.0000 C   0  0
    5.1945    3.0046    0.0000 N   0  0
    3.8943    3.7525    0.0000 C   0  0
    2.5964    3.0004    0.0000 C   0  0
    6.2328    3.6062    0.0000 C   0  0
  1  2  2  0
  2  3  1  0
  3  4  2  0
  4  5  1  0
  5  6  2  0
  6  1  1  0
  6  7  1  0
  7  8  1  0
  8  9  1  0
  9 10  2  0
 10 11  1  0
 11 12  1  0
 12  8  2  0
 10 13  1  0
  4 14  1  0
 14 15  1  0
 15 16  2  0
 16 17  1  0
 17 18  2  0
 18 19  1  0
 19 20  2  0
 20 15  1  0
 20 21  1  0
 21 22  1  0
 22 23  1  0
 22 24  2  0
 23 25  1  0
  2 26  1  0
 26 27  1  0
 26 31  1  0
 27 28  1  0
 28 29  1  0
 29 30  1  0
 30 31  1  0
 29 32  1  0
M  END
> <chembl_id>
CHEMBL3604923

$$$$

  SciTegic12131613492D

 27 31  0  0  0  0            999 V2000
    0.8955    2.0810    0.0000 C   0  0
    1.7138    1.2033    0.0000 C   0  0
    2.8908    1.4370    0.0000 C   0  0
   -1.0028    1.5132    0.0000 N   0  0
   -2.3155    0.7475    0.0000 C   0  0
   -2.3155   -0.7475    0.0000 N   0  0
   -1.0028   -1.5132    0.0000 C   0  0
    0.2917    0.7475    0.0000 C   0  0
    0.2917   -0.7475    0.0000 C   0  0
    1.7138   -1.2033    0.0000 C   0  0
    2.5889    0.0182    0.0000 O   0  0
   -3.6168    1.4950    0.0000 C   0  0
   -4.9669    0.8708    0.0000 C   0  0
   -5.9732    1.9832    0.0000 N   0  0
   -5.2262    3.2840    0.0000 N   0  0
   -3.7582    2.9755    0.0000 C   0  0
   -0.9971   -3.0138    0.0000 C   0  0
   -2.2935   -3.7700    0.0000 C   0  0
   -4.6304   -4.2656    0.0000 N   0  0
   -3.6203   -3.1531    0.0000 N   0  0
   -3.8857   -5.5600    0.0000 C   0  0
   -2.4241   -5.2456    0.0000 C   0  0
   -1.4032   -6.3500    0.0000 C   0  0
   -1.8757   -7.7944    0.0000 C   0  0
   -3.3373   -8.1089    0.0000 C   0  0
   -4.3620   -6.9866    0.0000 C   0  0
    0.0446   -3.6095    0.0000 O   0  0
  2  1  1  0
  3  2  1  0
  8  4  1  0
  4  5  2  0
  5  6  1  0
  6  7  2  0
  7  9  1  0
  8  9  2  0
  9 10  1  0
 10 11  1  0
 11  2  1  0
  2  8  1  0
  5 12  1  0
 12 13  2  0
 13 14  1  0
 14 15  1  0
 15 16  2  0
 16 12  1  0
  7 17  1  0
 17 18  1  0
 18 22  1  0
 21 19  1  0
 19 20  1  0
 20 18  2  0
 21 22  2  0
 22 23  1  0
 23 24  2  0
 24 25  1  0
 25 26  2  0
 26 21  1  0
 17 27  2  0
M  END
> <chembl_id>
CHEMBL3759761

$$$$

  SciTegic02271217242D

 25 28  0  0  0  0            999 V2000
   -2.6253  -17.2110    0.0000 N   0  0
   -1.9088  -16.7977    0.0000 C   0  0
   -1.9117  -15.9672    0.0000 N   0  0
   -2.6271  -15.5580    0.0000 C   0  0
   -3.3401  -16.7982    0.0000 C   0  0
   -3.3388  -15.9692    0.0000 C   0  0
   -4.1268  -15.7119    0.0000 N   0  0
   -4.6151  -16.3818    0.0000 C   0  0
   -4.1288  -17.0531    0.0000 C   0  0
   -2.6289  -14.7330    0.0000 N   0  0
   -1.9153  -14.3190    0.0000 C   0  0
   -1.2031  -14.7329    0.0000 C   0  0
   -0.4900  -14.3195    0.0000 C   0  0
   -0.4913  -13.4936    0.0000 C   0  0
   -1.2117  -13.0828    0.0000 C   0  0
   -1.9219  -13.4986    0.0000 C   0  0
    0.2252  -14.7307    0.0000 Cl  0  0
    0.2217  -13.0786    0.0000 O   0  0
    0.9376  -13.4886    0.0000 C   0  0
    0.9376  -14.3136    0.0000 C   0  0
    1.6527  -14.7235    0.0000 C   0  0
    2.3667  -14.3084    0.0000 C   0  0
    2.3611  -13.4792    0.0000 C   0  0
    1.6455  -13.0730    0.0000 C   0  0
    3.0727  -13.0616    0.0000 Cl  0  0
 11 12  2  0
  5  1  1  0
 12 13  1  0
  2  3  1  0
 13 14  2  0
 14 15  1  0
  3  4  2  0
 15 16  2  0
 16 11  1  0
  6  7  1  0
 13 17  1  0
  7  8  1  0
 14 18  1  0
  8  9  2  0
 18 19  1  0
  9  5  1  0
 19 20  2  0
  4  6  1  0
 20 21  1  0
  4 10  1  0
 21 22  2  0
  5  6  2  0
 22 23  1  0
 10 11  1  0
 23 24  2  0
 24 19  1  0
  1  2  2  0
 23 25  1  0
M  END
> <chembl_id>
CHEMBL1921812

$$$$

  SciTegic12161615052D

 31 34  0  0  0  0            999 V2000
    1.2990   -0.7500    0.0000 C   0  0
    1.2990    0.7500    0.0000 C   0  0
    0.0000    1.5000    0.0000 C   0  0
   -1.2990    0.7500    0.0000 C   0  0
   -1.2990   -0.7500    0.0000 C   0  0
    0.0000   -1.5000    0.0000 N   0  0
    2.5972    1.5031    0.0000 C   0  0
    3.6375    0.9049    0.0000 O   0  0
    2.5951    3.0039    0.0000 N   0  0
    2.3383   -1.3500    0.0000 O   0  0
    3.8933    3.7570    0.0000 C   0  0
    3.8933    5.2571    0.0000 C   0  0
    5.1924    6.0071    0.0000 C   0  0
    6.4914    5.2571    0.0000 C   0  0
    6.4915    3.7571    0.0000 C   0  0
    5.1925    3.0071    0.0000 C   0  0
    7.7911    6.0075    0.0000 N   0  0
    7.7935    7.5076    0.0000 C   0  0
    9.0937    8.2556    0.0000 C   0  0
   10.3916    7.5036    0.0000 N   0  0
   10.3893    6.0036    0.0000 C   0  0
    9.0891    5.2556    0.0000 C   0  0
   11.4318    8.1019    0.0000 C   0  0
   -0.0031    3.0008    0.0000 N   0  0
   -1.3039    3.7494    0.0000 C   0  0
   -2.6005    2.9949    0.0000 C   0  0
   -3.9021    3.7404    0.0000 C   0  0
   -3.9073    5.2404    0.0000 C   0  0
   -2.6108    5.9949    0.0000 C   0  0
   -1.3092    5.2494    0.0000 C   0  0
   -0.2721    5.8530    0.0000 C   0  0
  1  2  1  0
  2  3  2  0
  3  4  1  0
  4  5  2  0
  5  6  1  0
  1  6  1  0
  7  8  2  0
  7  9  1  0
  2  7  1  0
  1 10  2  0
 11 12  1  0
 12 13  2  0
 13 14  1  0
 14 15  2  0
 15 16  1  0
 11 16  2  0
 17 18  1  0
 18 19  1  0
 19 20  1  0
 20 21  1  0
 21 22  1  0
 17 22  1  0
 20 23  1  0
 14 17  1  0
  9 11  1  0
  3 24  1  0
 24 25  1  0
 25 26  2  0
 26 27  1  0
 27 28  2  0
 28 29  1  0
 29 30  2  0
 30 25  1  0
 30 31  1  0
M  END
> <chembl_id>
CHEMBL3780073

$$$$

  SciTegic05061409512D

 26 28  0  0  0  0            999 V2000
    7.6766  -11.8740    0.0000 O   0  0
    8.0894  -12.5839    0.0000 S   0  0
    8.4978  -11.8715    0.0000 O   0  0
    5.2661  -16.6767    0.0000 N   0  0
    5.9757  -16.2672    0.0000 C   0  0
    5.9729  -15.4446    0.0000 N   0  0
    5.2643  -15.0393    0.0000 C   0  0
    4.5580  -16.2677    0.0000 C   0  0
    4.5603  -15.4458    0.0000 C   0  0
    3.8508  -15.0347    0.0000 C   0  0
    3.1385  -15.4443    0.0000 C   0  0
    3.1402  -16.2693    0.0000 C   0  0
    3.8503  -16.6768    0.0000 C   0  0
    5.2626  -14.2221    0.0000 N   0  0
    2.4308  -15.0358    0.0000 N   0  0
    1.7231  -15.4446    0.0000 C   0  0
    1.0153  -15.0361    0.0000 C   0  0
    1.7233  -16.2618    0.0000 O   0  0
    0.3077  -15.4448    0.0000 C   0  0
    5.9694  -13.8121    0.0000 C   0  0
    6.6784  -14.2242    0.0000 C   0  0
    7.3847  -13.8148    0.0000 C   0  0
    7.3835  -12.9968    0.0000 C   0  0
    6.6699  -12.5898    0.0000 C   0  0
    5.9665  -13.0016    0.0000 C   0  0
    8.7989  -12.9919    0.0000 N   0  0
  2  1  2  0
  3  2  2  0
  8  4  1  0
  4  5  2  0
  5  6  1  0
  6  7  2  0
  7  9  1  0
  8  9  1  0
  9 10  2  0
 10 11  1  0
 11 12  2  0
 12 13  1  0
 13  8  2  0
  7 14  1  0
 11 15  1  0
 15 16  1  0
 16 17  1  0
 16 18  2  0
 17 19  2  0
 14 20  1  0
 20 21  2  0
 21 22  1  0
 22 23  2  0
 23 24  1  0
 24 25  2  0
 25 20  1  0
 23  2  1  0
  2 26  1  0
M  END
> <chembl_id>
CHEMBL3133910

$$$$

  SciTegic05221516342D

 38 41  0  0  0  0            999 V2000
   11.1999  -28.8699    0.0000 C   0  0
   11.1987  -29.6895    0.0000 C   0  0
   11.9068  -30.0984    0.0000 N   0  0
   12.6164  -29.6890    0.0000 C   0  0
   12.6136  -28.8663    0.0000 N   0  0
   11.9050  -28.4611    0.0000 C   0  0
   11.9031  -27.6440    0.0000 C   0  0
   12.5627  -27.1616    0.0000 C   0  0
   12.3079  -26.3852    0.0000 N   0  0
   11.2406  -27.1656    0.0000 C   0  0
   11.4874  -26.3844    0.0000 C   0  0
   10.9374  -25.7835    0.0000 C   0  0
   10.1376  -25.9579    0.0000 C   0  0
    9.8907  -26.7391    0.0000 C   0  0
   10.4437  -27.3457    0.0000 C   0  0
   13.3248  -30.0965    0.0000 N   0  0
   14.0319  -29.6868    0.0000 C   0  0
   14.7369  -30.0947    0.0000 C   0  0
   15.4435  -29.6857    0.0000 C   0  0
   15.4426  -28.8676    0.0000 C   0  0
   14.7293  -28.4603    0.0000 C   0  0
   14.0256  -28.8717    0.0000 C   0  0
   14.7370  -30.9119    0.0000 O   0  0
   14.0293  -31.3206    0.0000 C   0  0
   14.7251  -27.6431    0.0000 N   0  0
   14.0153  -27.2381    0.0000 C   0  0
   14.0112  -26.4209    0.0000 C   0  0
   13.3097  -27.6503    0.0000 O   0  0
   14.7168  -26.0087    0.0000 C   0  0
   16.1491  -28.4570    0.0000 N   0  0
   16.8580  -28.8635    0.0000 C   0  0
   16.1468  -27.6398    0.0000 C   0  0
   16.8604  -29.6807    0.0000 C   0  0
   17.5693  -30.0872    0.0000 N   0  0
   17.5717  -30.9044    0.0000 C   0  0
   18.2758  -29.6766    0.0000 C   0  0
   12.7875  -25.7236    0.0000 C   0  0
   10.4887  -28.4597    0.0000 Cl  0  0
  1  2  2  0
  2  3  1  0
  3  4  2  0
  4  5  1  0
  5  6  2  0
  6  1  1  0
  7  8  2  0
  8  9  1  0
  9 11  1  0
 10  7  1  0
  6  7  1  0
 10 11  2  0
 10 15  1  0
 11 12  1  0
 12 13  2  0
 13 14  1  0
 14 15  2  0
  4 16  1  0
 16 17  1  0
 17 18  2  0
 18 19  1  0
 19 20  2  0
 20 21  1  0
 21 22  2  0
 22 17  1  0
 18 23  1  0
 23 24  1  0
 21 25  1  0
 25 26  1  0
 26 27  1  0
 26 28  2  0
 27 29  2  0
 20 30  1  0
 30 31  1  0
 30 32  1  0
 31 33  1  0
 33 34  1  0
 34 35  1  0
 34 36  1  0
  9 37  1  0
  1 38  1  0
M  END
> <chembl_id>
CHEMBL3353407

$$$$

  SciTegic04201614442D

 37 41  0  0  0  0            999 V2000
   -2.6111    0.7486    0.0000 N   0  0
   -2.6111   -0.7486    0.0000 C   0  0
   -1.2964   -1.4973    0.0000 N   0  0
   -1.2964    1.4973    0.0000 C   0  0
    0.0000    0.7486    0.0000 C   0  0
    0.0000   -0.7486    0.0000 C   0  0
    1.2964   -1.4973    0.0000 N   0  0
    1.2964    1.4973    0.0000 C   0  0
    2.5929    0.7486    0.0000 C   0  0
    2.5929   -0.7486    0.0000 C   0  0
    1.2964   -2.9980    0.0000 C   0  0
   -0.0014   -3.7503    0.0000 C   0  0
    0.0011   -5.2503    0.0000 C   0  0
    1.3014   -5.9981    0.0000 C   0  0
    2.5992   -5.2460    0.0000 C   0  0
    2.5967   -3.7460    0.0000 C   0  0
    3.9017   -5.9916    0.0000 N   0  0
    5.1991   -5.2372    0.0000 C   0  0
    6.5017   -5.9828    0.0000 C   0  0
    5.1951   -4.0372    0.0000 O   0  0
    7.5390   -5.3796    0.0000 C   0  0
   -3.9091   -1.5019    0.0000 N   0  0
   -3.9067   -3.0027    0.0000 C   0  0
   -5.2030   -3.7575    0.0000 C   0  0
   -5.1976   -5.2575    0.0000 C   0  0
   -3.8958   -6.0028    0.0000 C   0  0
   -2.5995   -5.2481    0.0000 C   0  0
   -2.6050   -3.7481    0.0000 C   0  0
   -3.8904   -7.5035    0.0000 N   0  0
   -5.1855   -8.2604    0.0000 C   0  0
   -5.1777   -9.7604    0.0000 C   0  0
   -3.8747  -10.5036    0.0000 N   0  0
   -2.5796   -9.7469    0.0000 C   0  0
   -2.5874   -8.2469    0.0000 C   0  0
    3.6321   -1.3486    0.0000 O   0  0
    1.2964    2.6973    0.0000 C   0  0
   -3.8685  -11.7036    0.0000 C   0  0
  1  2  2  0
  2  3  1  0
  3  6  2  0
  5  4  2  0
  4  1  1  0
  5  6  1  0
  5  8  1  0
  6  7  1  0
  7 10  1  0
  9  8  2  0
  9 10  1  0
 11 12  2  0
 12 13  1  0
 13 14  2  0
 14 15  1  0
 15 16  2  0
 16 11  1  0
  7 11  1  0
 15 17  1  0
 17 18  1  0
 18 19  1  0
 18 20  2  0
 19 21  2  0
  2 22  1  0
 22 23  1  0
 23 24  2  0
 24 25  1  0
 25 26  2  0
 26 27  1  0
 27 28  2  0
 28 23  1  0
 29 30  1  0
 29 34  1  0
 30 31  1  0
 31 32  1  0
 32 33  1  0
 33 34  1  0
 26 29  1  0
 10 35  2  0
  8 36  1  0
 32 37  1  0
M  END
> <chembl_id>
CHEMBL3633146

$$$$

  SciTegic12091614082D

 38 42  0  0  0  0            999 V2000
   -1.2964    1.4973    0.0000 C   0  0
   -2.6111    0.7486    0.0000 C   0  0
   -2.6111   -0.7486    0.0000 C   0  0
   -1.2964   -1.4973    0.0000 C   0  0
    0.0000   -0.7486    0.0000 C   0  0
    1.2964   -1.4973    0.0000 C   0  0
    2.5929   -0.7486    0.0000 C   0  0
    2.5929    0.7486    0.0000 C   0  0
    1.2964    1.4973    0.0000 C   0  0
    0.0000    0.7486    0.0000 C   0  0
   -1.2907    2.9981    0.0000 C   0  0
   -0.2489    3.5938    0.0000 O   0  0
   -2.5870    3.7544    0.0000 N   0  0
   -2.5812    5.2552    0.0000 C   0  0
   -3.8758    6.0130    0.0000 C   0  0
   -3.8669    7.5130    0.0000 C   0  0
   -2.5634    8.2553    0.0000 C   0  0
   -1.2688    7.4976    0.0000 C   0  0
   -1.2777    5.9976    0.0000 C   0  0
    3.8942   -1.4964    0.0000 O   0  0
    7.7910   -0.7351    0.0000 C   0  0
    6.4946   -1.4896    0.0000 N   0  0
    5.1929   -0.7441    0.0000 C   0  0
    5.1877    0.7559    0.0000 C   0  0
    6.4842    1.5104    0.0000 C   0  0
    7.7858    0.7649    0.0000 N   0  0
    9.0949   -1.4783    0.0000 N   0  0
   10.3910   -0.7216    0.0000 C   0  0
   11.6952   -1.4625    0.0000 C   0  0
   12.9890   -0.7035    0.0000 C   0  0
   12.9787    0.7965    0.0000 C   0  0
   11.6745    1.5374    0.0000 C   0  0
   10.3806    0.7785    0.0000 C   0  0
   11.6610    3.0382    0.0000 C   0  0
   10.3550    3.7778    0.0000 S   0  0
    9.3210    3.1688    0.0000 C   0  0
   10.3442    4.9777    0.0000 O   0  0
    9.3105    4.3686    0.0000 O   0  0
  1  2  1  0
  2  3  2  0
  3  4  1  0
  4  5  2  0
  5  6  1  0
  6  7  2  0
  7  8  1  0
  8  9  2  0
  9 10  1  0
  1 10  2  0
  5 10  1  0
  1 11  1  0
 11 12  2  0
 11 13  1  0
 14 15  1  0
 15 16  2  0
 16 17  1  0
 17 18  2  0
 18 19  1  0
 14 19  2  0
 13 14  1  0
 21 22  1  0
 22 23  2  0
 23 24  1  0
 24 25  2  0
 25 26  1  0
 21 26  2  0
 20 23  1  0
 28 29  1  0
 29 30  2  0
 30 31  1  0
 31 32  2  0
 32 33  1  0
 28 33  2  0
 27 28  1  0
 21 27  1  0
  7 20  1  0
 32 34  1  0
 34 35  1  0
 35 36  1  0
 35 37  2  0
 35 38  2  0
M  END
> <chembl_id>
CHEMBL3740721

$$$$

  SciTegic12201611512D

 28 31  0  0  0  0            999 V2000
   -7.3414    2.1476    0.0000 C   0  0
   -6.0489    2.9104    0.0000 C   0  0
   -6.0632    4.4104    0.0000 C   0  0
   -4.7714    5.1728    0.0000 C   0  0
   -3.4653    4.4352    0.0000 C   0  0
   -3.4508    2.9353    0.0000 C   0  0
   -4.7427    2.1729    0.0000 C   0  0
   -8.3748    1.5377    0.0000 N   0  0
   -2.1454    2.1947    0.0000 N   0  0
   -2.1332   -2.2973    0.0000 N   0  0
   -3.4277   -1.5498    0.0000 C   0  0
   -3.4277    0.0000    0.0000 N   0  0
   -2.1332    0.6928    0.0000 C   0  0
   -0.8205    0.0000    0.0000 C   0  0
    0.4558    0.6928    0.0000 C   0  0
    1.7503    0.0000    0.0000 C   0  0
    1.7503   -1.5498    0.0000 C   0  0
    0.4558   -2.2973    0.0000 C   0  0
   -0.8205   -1.5498    0.0000 C   0  0
    0.4558    2.1879    0.0000 O   0  0
    3.0631    0.6928    0.0000 O   0  0
    3.0631    2.1879    0.0000 C   0  0
    1.7503    2.9537    0.0000 C   0  0
    3.0410   -2.3153    0.0000 O   0  0
    3.0239   -3.8160    0.0000 C   0  0
    4.0559   -4.4284    0.0000 C   0  0
    1.9778   -4.4039    0.0000 C   0  0
   -7.1082    5.0004    0.0000 F   0  0
  1  2  1  0
  2  3  1  0
  3  4  2  0
  4  5  1  0
  5  6  2  0
  6  7  1  0
  2  7  2  0
  1  8  3  0
 10 11  1  0
 11 12  2  0
 12 13  1  0
 13 14  2  0
 14 15  1  0
 15 16  2  0
 16 17  1  0
 17 18  2  0
 18 19  1  0
 10 19  2  0
 14 19  1  0
 21 22  1  0
 22 23  1  0
 20 23  1  0
 15 20  1  0
 16 21  1  0
 25 26  1  0
 25 27  1  0
 24 25  1  0
 17 24  1  0
  9 13  1  0
  6  9  1  0
  3 28  1  0
M  END
> <chembl_id>
CHEMBL3805949

$$$$

  SciTegic09081514182D

 28 29  0  0  0  0            999 V2000
    1.2990   -0.7500    0.0000 C   0  0
    1.2990    0.7500    0.0000 C   0  0
    0.0000    1.5000    0.0000 C   0  0
   -1.2990    0.7500    0.0000 C   0  0
   -1.2990   -0.7500    0.0000 C   0  0
    0.0000   -1.5000    0.0000 C   0  0
   -2.5972   -1.5031    0.0000 C   0  0
   -2.5951   -3.0039    0.0000 C   0  0
   -3.8933   -3.7570    0.0000 C   0  0
   -3.8912   -5.2578    0.0000 C   0  0
   -4.9336   -3.1588    0.0000 O   0  0
   -5.1894   -6.0109    0.0000 C   0  0
   -5.1872   -7.5117    0.0000 C   0  0
   -6.2296   -5.4127    0.0000 O   0  0
   -6.4854   -8.2648    0.0000 C   0  0
   -6.4833   -9.7657    0.0000 C   0  0
   -7.7797  -10.5203    0.0000 C   0  0
   -7.7745  -12.0202    0.0000 C   0  0
   -6.4729  -12.7657    0.0000 C   0  0
   -5.1764  -12.0112    0.0000 C   0  0
   -5.1816  -10.5113    0.0000 C   0  0
    2.5973   -1.5031    0.0000 O   0  0
    2.5972    1.5031    0.0000 O   0  0
   -6.4708  -14.2666    0.0000 O   0  0
    2.5956   -2.7031    0.0000 C   0  0
   -4.1351  -12.6076    0.0000 O   0  0
    2.5955    2.7031    0.0000 C   0  0
   -7.5088  -14.8687    0.0000 C   0  0
  1  2  2  0
  2  3  1  0
  3  4  2  0
  4  5  1  0
  5  6  2  0
  6  1  1  0
  5  7  1  0
  7  8  2  0
  8  9  1  0
  9 10  2  0
  9 11  1  0
 10 12  1  0
 12 13  1  0
 12 14  2  0
 13 15  2  0
 15 16  1  0
 16 17  2  0
 17 18  1  0
 18 19  2  0
 19 20  1  0
 20 21  2  0
 21 16  1  0
  1 22  1  0
  2 23  1  0
 19 24  1  0
 22 25  1  0
 20 26  1  0
 23 27  1  0
 24 28  1  0
M  END
> <chembl_id>
CHEMBL3402846

$$$$

  SciTegic12191611242D

 27 30  0  0  0  0            999 V2000
   -8.4598    0.3211    0.0000 C   0  0
   -7.2652    0.2078    0.0000 N   0  0
   -6.5020   -1.0835    0.0000 N   0  0
   -5.0380   -0.7567    0.0000 C   0  0
   -6.2729    1.3327    0.0000 C   0  0
   -4.9153    0.7255    0.0000 C   0  0
   -3.6217    1.4865    0.0000 N   0  0
   -2.3155    0.7475    0.0000 C   0  0
   -1.0028    1.5132    0.0000 N   0  0
    0.2917    0.7475    0.0000 C   0  0
    0.2917   -0.7475    0.0000 C   0  0
    1.7138   -1.2033    0.0000 C   0  0
    2.5889    0.0182    0.0000 C   0  0
    1.7138    1.2033    0.0000 N   0  0
   -1.0028   -1.5132    0.0000 C   0  0
   -0.9971   -3.0138    0.0000 O   0  0
   -2.2935   -3.7700    0.0000 C   0  0
   -2.2878   -5.2708    0.0000 C   0  0  1  0  0  0
   -3.4962   -6.1377    0.0000 C   0  0
   -3.0243   -7.5615    0.0000 N   0  0
   -3.8953   -8.7806    0.0000 C   0  0
   -3.2749  -10.1472    0.0000 C   0  0
   -3.9725  -11.1236    0.0000 C   0  0
   -5.0897   -8.6643    0.0000 O   0  0
   -1.5244   -7.5527    0.0000 C   0  0
   -1.0692   -6.1235    0.0000 C   0  0
   -2.3155   -0.7475    0.0000 N   0  0
  1  2  1  0
  2  3  1  0
  3  4  2  0
  2  5  1  0
  5  6  2  0
  4  6  1  0
  6  7  1  0
  7  8  1  0
  8  9  2  0
  9 10  1  0
 10 11  2  0
 11 12  1  0
 12 13  2  0
 13 14  1  0
 10 14  1  0
 11 15  1  0
 15 16  1  0
 16 17  1  0
 18 17  1  6
 18 19  1  0
 19 20  1  0
 20 21  1  0
 21 22  1  0
 22 23  2  0
 21 24  2  0
 20 25  1  0
 25 26  1  0
 18 26  1  0
 15 27  2  0
  8 27  1  0
M  END
> <chembl_id>
CHEMBL3787327

$$$$

  SciTegic01061414252D

 39 43  0  0  0  0            999 V2000
    8.9227  -10.8359    0.0000 C   0  0
    8.1883  -10.4600    0.0000 C   0  0
    7.4956  -10.9079    0.0000 C   0  0
    6.7612  -10.5321    0.0000 C   0  0
    9.6154  -10.3880    0.0000 O   0  0
    6.0685  -10.9801    0.0000 N   0  0
    6.1101  -11.8040    0.0000 C   0  0
    5.3341  -10.6041    0.0000 C   0  0
   11.9017  -13.1636    0.0000 N   0  0
   12.5944  -12.7155    0.0000 C   0  0
   12.5528  -11.8916    0.0000 N   0  0
   11.8185  -11.5157    0.0000 C   0  0
   11.1257  -11.9637    0.0000 C   0  0
   10.3914  -11.5877    0.0000 C   0  0
    9.6986  -12.0358    0.0000 C   0  0
    9.7402  -12.8598    0.0000 C   0  0
   10.4746  -13.2356    0.0000 C   0  0
   11.1673  -12.7876    0.0000 C   0  0
    9.0475  -13.3077    0.0000 O   0  0
    8.9643  -11.6599    0.0000 N   0  0
    8.2715  -12.1078    0.0000 C   0  0
    8.3131  -12.9318    0.0000 C   0  0
   11.7769  -10.6918    0.0000 N   0  0
   12.4696  -10.2437    0.0000 C   0  0
   12.4280   -9.4198    0.0000 C   0  0
   13.1208   -8.9718    0.0000 C   0  0
   13.8551   -9.3477    0.0000 C   0  0
   13.8967  -10.1717    0.0000 C   0  0
   13.2040  -10.6197    0.0000 C   0  0
   14.5478   -8.8998    0.0000 O   0  0
   14.5062   -8.0758    0.0000 C   0  0
   15.1990   -7.6278    0.0000 C   0  0
   15.1574   -6.8038    0.0000 C   0  0
   15.8501   -6.3558    0.0000 C   0  0
   16.5845   -6.7318    0.0000 C   0  0
   16.6261   -7.5557    0.0000 C   0  0
   15.9333   -8.0037    0.0000 C   0  0
   15.8085   -5.5319    0.0000 F   0  0
   13.0791   -8.1479    0.0000 Cl  0  0
  1  2  1  0
  2  3  2  0
  3  4  1  0
  1  5  2  0
  6  7  1  0
  6  8  1  0
  4  6  1  0
  9 10  1  0
 10 11  2  0
 11 12  1  0
 12 13  2  0
 13 14  1  0
 14 15  2  0
 15 16  1  0
 16 17  2  0
 17 18  1  0
  9 18  2  0
 13 18  1  0
 20 21  1  0
 21 22  1  0
 19 22  1  0
 15 20  1  0
 16 19  1  0
 24 25  1  0
 25 26  2  0
 26 27  1  0
 27 28  2  0
 28 29  1  0
 24 29  2  0
 31 32  1  0
 32 33  1  0
 33 34  2  0
 34 35  1  0
 35 36  2  0
 36 37  1  0
 32 37  2  0
 34 38  1  0
 30 31  1  0
 27 30  1  0
 26 39  1  0
 23 24  1  0
 12 23  1  0
  1 20  1  0
M  END
> <chembl_id>
CHEMBL2441567

$$$$

  SciTegic12231509382D

 37 40  0  0  0  0            999 V2000
    1.3427   12.6915    0.0000 C   0  0
    1.8276   13.3589    0.0000 N   0  0
    2.6122   13.1040    0.0000 C   0  0
    2.6122   12.2790    0.0000 C   0  0
    1.8276   12.0240    0.0000 C   0  0
    3.3267   13.5165    0.0000 C   0  0
    4.0412   13.1040    0.0000 C   0  0
    4.0412   12.2790    0.0000 C   0  0
    3.3267   11.8665    0.0000 C   0  0
    1.5727   11.2394    0.0000 C   0  0
    2.1247   10.6263    0.0000 N   0  0
    1.8697    9.8417    0.0000 C   0  0
    1.0628    9.6702    0.0000 N   0  0
    0.5107   10.2833    0.0000 C   0  0
    0.7657   11.0679    0.0000 C   0  0
    2.4218    9.2286    0.0000 N   0  0
    2.1668    8.4440    0.0000 C   0  0
    2.7189    7.8309    0.0000 C   0  0
    2.4639    7.0463    0.0000 C   0  0
    1.6570    6.8747    0.0000 C   0  0
    1.1049    7.4878    0.0000 C   0  0
    1.3599    8.2725    0.0000 C   0  0
    3.5258    8.0024    0.0000 O   0  0
    4.0779    7.3893    0.0000 C   0  0
    0.2980    7.3163    0.0000 N   0  0
   -0.2541    7.9294    0.0000 C   0  0
    0.0009    8.7140    0.0000 O   0  0
   -1.0610    7.7579    0.0000 C   0  0
   -1.6131    8.3710    0.0000 C   0  0
    1.4020    6.0901    0.0000 N   0  0
    1.9541    5.4770    0.0000 C   0  0
    0.5950    5.9186    0.0000 C   0  0
    0.3401    5.1340    0.0000 C   0  0
   -0.4669    4.9624    0.0000 N   0  0
   -0.7218    4.1778    0.0000 C   0  0
   -1.0189    5.5755    0.0000 C   0  0
    1.5727   14.1435    0.0000 C   0  0
  1  2  1  0
  2  3  1  0
  4  5  1  0
  1  5  2  0
  3  6  1  0
  4  3  2  0
  9  4  1  0
  6  7  2  0
  7  8  1  0
  8  9  2  0
  5 10  1  0
 10 11  1  0
 10 15  2  0
 11 12  2  0
 12 13  1  0
 13 14  2  0
 14 15  1  0
 12 16  1  0
 16 17  1  0
 17 18  1  0
 17 22  2  0
 18 19  2  0
 19 20  1  0
 20 21  2  0
 21 22  1  0
 18 23  1  0
 23 24  1  0
 21 25  1  0
 25 26  1  0
 26 27  2  0
 26 28  1  0
 28 29  2  0
 20 30  1  0
 30 31  1  0
 30 32  1  0
 32 33  1  0
 33 34  1  0
 34 35  1  0
 34 36  1  0
  2 37  1  0
M  END
> <chembl_id>
CHEMBL3353410

$$$$

  SciTegic12091615102D

 45 50  0  0  0  0            999 V2000
   -3.8954    7.5022    0.0000 C   0  0
   -5.1917    8.2569    0.0000 C   0  0
   -6.4935    7.5116    0.0000 C   0  0
   -6.4988    6.0116    0.0000 C   0  0
   -5.2025    5.2568    0.0000 C   0  0
   -3.9008    6.0022    0.0000 C   0  0
   -5.2049    3.7560    0.0000 N   0  0
   -3.9067    3.0027    0.0000 C   0  0
   -3.9091    1.5019    0.0000 N   0  0
   -2.8664    3.6008    0.0000 O   0  0
   -2.6111    0.7486    0.0000 C   0  0
   -2.6111   -0.7486    0.0000 C   0  0
   -1.2964   -1.4973    0.0000 C   0  0
   -1.2964    1.4973    0.0000 C   0  0
   -5.1894    9.7577    0.0000 C   0  0
    0.0000    0.7486    0.0000 C   0  0
    0.0000   -0.7486    0.0000 C   0  0
    1.2964   -1.4973    0.0000 N   0  0
    2.5929   -0.7486    0.0000 C   0  0
    2.5929    0.7486    0.0000 N   0  0
    1.2964    1.4973    0.0000 C   0  0
    1.2995    2.9981    0.0000 N   0  0
    2.6003    3.7467    0.0000 C   0  0
    2.6056    5.2467    0.0000 C   0  0
    3.9072    5.9922    0.0000 C   0  0
    5.2037    5.2377    0.0000 C   0  0
    5.1985    3.7377    0.0000 C   0  0
    3.8969    2.9922    0.0000 C   0  0
    6.2356    3.1342    0.0000 Cl  0  0
    6.5045    5.9863    0.0000 O   0  0
    6.5075    7.4872    0.0000 C   0  0
    7.8083    8.2357    0.0000 C   0  0
    7.8136    9.7358    0.0000 C   0  0
    9.1152   10.4813    0.0000 C   0  0
   10.4116    9.7268    0.0000 C   0  0
   10.4065    8.2268    0.0000 C   0  0
    9.1049    7.4813    0.0000 C   0  0
   11.4437    7.6233    0.0000 F   0  0
   -6.4876   10.5109    0.0000 N   0  0
   -6.4875   12.0110    0.0000 C   0  0
   -7.7864   12.7611    0.0000 C   0  0
   -9.0855   12.0113    0.0000 N   0  0
   -9.0857   10.5113    0.0000 C   0  0
   -7.7868    9.7611    0.0000 C   0  0
  -10.1247   12.6114    0.0000 C   0  0
  1  2  2  0
  2  3  1  0
  3  4  2  0
  4  5  1  0
  5  6  2  0
  6  1  1  0
  5  7  1  0
  7  8  1  0
  8  9  1  0
  8 10  2  0
  9 11  1  0
 11 12  2  0
 12 13  1  0
 13 17  2  0
 16 14  2  0
 14 11  1  0
  2 15  1  0
 16 17  1  0
 17 18  1  0
 18 19  2  0
 19 20  1  0
 20 21  2  0
 21 16  1  0
 21 22  1  0
 22 23  1  0
 23 24  2  0
 24 25  1  0
 25 26  2  0
 26 27  1  0
 27 28  2  0
 28 23  1  0
 27 29  1  0
 26 30  1  0
 30 31  1  0
 31 32  1  0
 32 33  2  0
 33 34  1  0
 34 35  2  0
 35 36  1  0
 36 37  2  0
 37 32  1  0
 36 38  1  0
 15 39  1  0
 39 40  1  0
 39 44  1  0
 40 41  1  0
 41 42  1  0
 42 43  1  0
 43 44  1  0
 42 45  1  0
M  END
> <chembl_id>
CHEMBL3740144

$$$$

  SciTegic12121614122D

 42 46  0  0  0  0            999 V2000
    2.3353   -3.5988    0.0000 F   0  0
    1.2964   -2.9981    0.0000 C   0  0
    0.2570   -3.5978    0.0000 F   0  0
   -1.2913    7.5063    0.0000 C   0  0
   -2.5882    8.2616    0.0000 C   0  0
   -2.5845    9.4615    0.0000 C   0  0
   -0.2500    8.1028    0.0000 O   0  0
   -1.2959    6.0055    0.0000 N   0  0
    0.0011    5.2503    0.0000 C   0  0
   -0.0014    3.7503    0.0000 C   0  0
    1.2964    2.9980    0.0000 C   0  0
    2.5967    3.7460    0.0000 C   0  0
    2.5992    5.2460    0.0000 C   0  0
    1.3014    5.9981    0.0000 C   0  0
   -2.6111    0.7486    0.0000 C   0  0
   -1.2964    1.4973    0.0000 N   0  0
    0.0000    0.7486    0.0000 C   0  0
    0.0000   -0.7486    0.0000 C   0  0
   -1.2964   -1.4973    0.0000 C   0  0
   -2.6111   -0.7486    0.0000 N   0  0
    1.2964   -1.4973    0.0000 C   0  0
    2.5929   -0.7486    0.0000 C   0  0
    2.5929    0.7486    0.0000 C   0  0
    1.2964    1.4973    0.0000 N   0  0
    3.6321    1.3486    0.0000 O   0  0
   -3.9122    1.4966    0.0000 N   0  0
   -5.2109    0.7445    0.0000 C   0  0
   -6.5125    1.4901    0.0000 C   0  0
   -7.8091    0.7359    0.0000 C   0  0
   -7.8042   -0.7641    0.0000 C   0  0
   -6.5027   -1.5098    0.0000 C   0  0
   -5.2061   -0.7556    0.0000 C   0  0
   -9.1014   -1.5188    0.0000 N   0  0
  -10.4041   -0.7752    0.0000 C   0  0
  -11.6995   -1.5315    0.0000 C   0  0
  -11.6922   -3.0315    0.0000 N   0  0
  -10.3895   -3.7751    0.0000 C   0  0
   -9.0942   -3.0188    0.0000 C   0  0
  -12.7285   -3.6365    0.0000 C   0  0
   -6.5206    2.9910    0.0000 O   0  0
   -7.5627    3.5860    0.0000 C   0  0
    1.2959   -4.1981    0.0000 F   0  0
  2  1  1  0
  3  2  1  0
  4  5  1  0
  5  6  2  0
  4  7  2  0
  4  8  1  0
  9 10  1  0
 10 11  2  0
 11 12  1  0
 12 13  2  0
 13 14  1  0
  9 14  2  0
 15 16  1  0
 16 17  2  0
 17 18  1  0
 18 19  2  0
 19 20  1  0
 15 20  2  0
 21 22  2  0
 22 23  1  0
 23 24  1  0
 17 24  1  0
 18 21  1  0
 21  2  1  0
 23 25  2  0
 27 28  1  0
 28 29  2  0
 29 30  1  0
 30 31  2  0
 31 32  1  0
 27 32  2  0
 33 34  1  0
 34 35  1  0
 35 36  1  0
 36 37  1  0
 37 38  1  0
 33 38  1  0
 36 39  1  0
 30 33  1  0
 40 41  1  0
 28 40  1  0
 26 27  1  0
 15 26  1  0
 11 24  1  0
  8  9  1  0
  2 42  1  0
M  END
> <chembl_id>
CHEMBL3753228

$$$$

  SciTegic04201616412D

 32 35  0  0  0  0            999 V2000
    0.0000    0.7486    0.0000 C   0  0
   -1.2964    1.4973    0.0000 C   0  0
    0.0000   -0.7486    0.0000 C   0  0
    1.2964    1.4973    0.0000 C   0  0
   -2.6111    0.7486    0.0000 N   0  0
    1.2964   -1.4973    0.0000 C   0  0
   -1.2907    2.9981    0.0000 N   0  0
    2.5929    0.7486    0.0000 C   0  0
    2.5929   -0.7486    0.0000 C   0  0
   -5.1852    3.7608    0.0000 C   0  0
   -1.2964   -1.4973    0.0000 N   0  0
   -3.8880    3.0076    0.0000 C   0  0
   -2.6111   -0.7486    0.0000 C   0  0
   -2.5870    3.7544    0.0000 C   0  0
   -5.1815    5.2608    0.0000 C   0  0
   -3.8807    6.0076    0.0000 C   0  0
   -2.5835    5.2544    0.0000 C   0  0
    3.8911   -1.5017    0.0000 O   0  0
   -3.8777    7.2076    0.0000 Cl  0  0
   -1.5428    5.8519    0.0000 F   0  0
    3.8894   -2.7017    0.0000 C   0  0
    3.8911    1.5017    0.0000 O   0  0
    3.8890    3.0026    0.0000 C   0  0
    5.1872    3.7556    0.0000 N   0  0
    2.8487    3.6008    0.0000 O   0  0
    5.1872    5.2557    0.0000 C   0  0  1  0  0  0
    6.4863    6.0057    0.0000 C   0  0
    7.7853    5.2557    0.0000 N   0  0
    8.8245    5.8558    0.0000 C   0  0
    6.4863    3.0057    0.0000 C   0  0
    7.7853    3.7557    0.0000 C   0  0
    4.1480    5.8557    0.0000 C   0  0
  2  1  1  0
  3  1  1  0
  4  1  2  0
  5  2  2  0
  6  3  2  0
  7  2  1  0
  8  4  1  0
  9  8  2  0
 10 12  1  0
 11  3  1  0
 12 14  2  0
 13 11  2  0
 14  7  1  0
 15 16  1  0
 16 17  2  0
 17 14  1  0
 18  9  1  0
  6  9  1  0
 13  5  1  0
 10 15  2  0
 16 19  1  0
 17 20  1  0
 18 21  1  0
  8 22  1  0
 22 23  1  0
 23 24  1  0
 23 25  2  0
 24 26  1  0
 24 30  1  0
 26 27  1  0
 27 28  1  0
 28 31  1  0
 28 29  1  0
 31 30  1  0
 26 32  1  6
M  END
> <chembl_id>
CHEMBL3623290

$$$$

  SciTegic12161615052D

 30 33  0  0  0  0            999 V2000
    1.2990   -0.7500    0.0000 C   0  0
    1.2990    0.7500    0.0000 C   0  0
    0.0000    1.5000    0.0000 C   0  0
   -1.2990    0.7500    0.0000 C   0  0
   -1.2990   -0.7500    0.0000 C   0  0
    0.0000   -1.5000    0.0000 N   0  0
    2.5972    1.5031    0.0000 C   0  0
    3.6375    0.9049    0.0000 O   0  0
    2.5951    3.0039    0.0000 N   0  0
    2.3383   -1.3500    0.0000 O   0  0
    3.8933    3.7570    0.0000 C   0  0
    3.8933    5.2571    0.0000 C   0  0
    5.1924    6.0071    0.0000 C   0  0
    6.4914    5.2571    0.0000 C   0  0
    6.4915    3.7571    0.0000 C   0  0
    5.1925    3.0071    0.0000 C   0  0
    7.7911    6.0075    0.0000 N   0  0
    7.7935    7.5076    0.0000 C   0  0
    9.0937    8.2556    0.0000 C   0  0
   10.3916    7.5036    0.0000 N   0  0
   10.3893    6.0036    0.0000 C   0  0
    9.0891    5.2556    0.0000 C   0  0
   11.4318    8.1019    0.0000 C   0  0
   -0.0031    3.0008    0.0000 N   0  0
   -1.3039    3.7494    0.0000 C   0  0
   -1.3092    5.2494    0.0000 C   0  0
   -2.6108    5.9949    0.0000 C   0  0
   -3.9073    5.2404    0.0000 C   0  0
   -3.9021    3.7404    0.0000 C   0  0
   -2.6005    2.9949    0.0000 N   0  0
  1  2  1  0
  2  3  2  0
  3  4  1  0
  4  5  2  0
  5  6  1  0
  1  6  1  0
  7  8  2  0
  7  9  1  0
  2  7  1  0
  1 10  2  0
 11 12  1  0
 12 13  2  0
 13 14  1  0
 14 15  2  0
 15 16  1  0
 11 16  2  0
 17 18  1  0
 18 19  1  0
 19 20  1  0
 20 21  1  0
 21 22  1  0
 17 22  1  0
 20 23  1  0
 14 17  1  0
  9 11  1  0
  3 24  1  0
 24 25  1  0
 25 26  2  0
 26 27  1  0
 27 28  2  0
 28 29  1  0
 29 30  2  0
 30 25  1  0
M  END
> <chembl_id>
CHEMBL3781988

$$$$

  SciTegic09081514162D

 42 46  0  0  0  0            999 V2000
    1.2990   -0.7500    0.0000 N   0  0
    1.2990    0.7500    0.0000 C   0  0
    0.0000    1.5000    0.0000 N   0  0
   -1.2990    0.7500    0.0000 C   0  0
   -1.2990   -0.7500    0.0000 C   0  0
    0.0000   -1.5000    0.0000 C   0  0
   -2.5973    1.5031    0.0000 O   0  0
    2.5972    1.5031    0.0000 N   0  0
    2.5951    3.0039    0.0000 C   0  0
   -3.8990    0.7562    0.0000 C   0  0
   -5.1976    1.5069    0.0000 C   0  0
   -6.4972    0.7578    0.0000 C   0  0
   -6.4981   -0.7422    0.0000 C   0  0
   -5.1996   -1.4931    0.0000 C   0  0
   -3.9001   -0.7439    0.0000 C   0  0
    3.8915    3.7585    0.0000 C   0  0
    3.8863    5.2585    0.0000 C   0  0
    2.5847    6.0040    0.0000 C   0  0
    1.2883    5.2495    0.0000 C   0  0
    1.2934    3.7495    0.0000 C   0  0
    2.5795    7.5047    0.0000 N   0  0
    3.8747    8.2614    0.0000 C   0  0
    3.8671    9.7614    0.0000 C   0  0
    2.5643   10.5048    0.0000 N   0  0
    1.2691    9.7483    0.0000 C   0  0
    1.2767    8.2483    0.0000 C   0  0
   -2.3383   -1.3500    0.0000 Cl  0  0
   -5.1975   -2.9939    0.0000 N   0  0
   -3.8972   -3.7433    0.0000 C   0  0
   -3.8950   -5.2441    0.0000 C   0  0
   -2.8586   -3.1422    0.0000 O   0  0
   -2.5947   -5.9935    0.0000 C   0  0
    2.5583   11.7048    0.0000 C   0  0
    5.1954    3.0153    0.0000 O   0  0
    6.2317    3.6204    0.0000 C   0  0
   -5.1940   -5.9960    0.0000 C   0  0
   -6.2326   -6.5971    0.0000 N   0  0
   -2.5926   -7.4944    0.0000 C   0  0
   -1.3796   -8.3550    0.0000 C   0  0
   -1.8441   -9.7812    0.0000 C   0  0
   -3.3441   -9.7803    0.0000 C   0  0
   -3.8067   -8.3534    0.0000 C   0  0
  1  2  2  0
  2  3  1  0
  3  4  2  0
  4  5  1  0
  5  6  2  0
  6  1  1  0
  4  7  1  0
  2  8  1  0
  8  9  1  0
  7 10  1  0
 10 11  2  0
 11 12  1  0
 12 13  2  0
 13 14  1  0
 14 15  2  0
 15 10  1  0
  9 16  2  0
 16 17  1  0
 17 18  2  0
 18 19  1  0
 19 20  2  0
 20  9  1  0
 21 22  1  0
 22 23  1  0
 23 24  1  0
 24 25  1  0
 25 26  1  0
 26 21  1  0
 18 21  1  0
  5 27  1  0
 14 28  1  0
 28 29  1  0
 29 30  1  0
 29 31  2  0
 30 32  2  0
 24 33  1  0
 16 34  1  0
 34 35  1  0
 30 36  1  0
 36 37  3  0
 32 38  1  0
 38 39  1  0
 39 40  1  0
 40 41  1  0
 41 42  1  0
 42 38  1  0
M  END
> <chembl_id>
CHEMBL3425667

$$$$

  SciTegic12091611192D

 31 34  0  0  0  0            999 V2000
   -3.6217    1.4865    0.0000 N   0  0
   -7.5133    0.6990    0.0000 C   0  0
   -6.2219    1.4621    0.0000 N   0  0
   -4.9153    0.7255    0.0000 C   0  0
   -4.9001   -0.7745    0.0000 C   0  0
   -6.1914   -1.5377    0.0000 C   0  0
   -7.4980   -0.8010    0.0000 N   0  0
   -8.8205    1.4361    0.0000 N   0  0
   -8.8383    2.9360    0.0000 C   0  0
  -10.1461    3.6707    0.0000 C   0  0
  -11.4362    2.9055    0.0000 C   0  0
  -11.4185    1.4056    0.0000 C   0  0
  -10.1108    0.6709    0.0000 C   0  0
   -1.0028   -1.5132    0.0000 C   0  0
    0.2917   -0.7475    0.0000 C   0  0
    0.2917    0.7475    0.0000 C   0  0
   -1.0028    1.5132    0.0000 C   0  0
   -2.3155    0.7475    0.0000 C   0  0
   -2.3155   -0.7475    0.0000 N   0  0
    2.5889    0.0182    0.0000 C   0  0
    1.7138   -1.2033    0.0000 N   0  0
    1.7138    1.2033    0.0000 N   0  0
    3.7889    0.0269    0.0000 C   0  0
    2.1812    2.6271    0.0000 C   0  0
    3.3556    2.8737    0.0000 C   0  0
    1.3808    3.5211    0.0000 C   0  0
  -11.4173    4.3861    0.0000 O   0  0
  -12.6905    2.1191    0.0000 C   0  0
  -12.4631    4.9746    0.0000 C   0  0
  -12.6735    0.6184    0.0000 C   0  0
  -13.7054    0.0060    0.0000 O   0  0
  2  3  1  0
  3  4  2  0
  4  5  1  0
  5  6  2  0
  6  7  1  0
  2  7  2  0
  8  9  1  0
  9 10  1  0
 10 11  1  0
 11 12  1  0
 12 13  1  0
  8 13  1  0
  2  8  1  0
  1  4  1  0
 14 15  1  0
 15 16  2  0
 16 17  1  0
 17 18  2  0
 18 19  1  0
 14 19  2  0
 20 21  2  0
 20 22  1  0
 15 21  1  0
 16 22  1  0
  1 18  1  0
 20 23  1  0
 22 24  1  0
 24 25  1  0
 24 26  1  0
 11 27  1  0
 11 28  1  0
 27 29  1  0
 28 30  1  0
 30 31  1  0
M  END
> <chembl_id>
CHEMBL3736191

$$$$

  SciTegic12231509382D

 34 37  0  0  0  0            999 V2000
    4.8944  -18.6291    0.0000 C   0  0
    4.8932  -19.4565    0.0000 C   0  0
    5.6080  -19.8693    0.0000 C   0  0
    6.3245  -19.4560    0.0000 C   0  0
    6.3216  -18.6255    0.0000 C   0  0
    5.6062  -18.2163    0.0000 C   0  0
    7.0373  -19.8666    0.0000 N   0  0
    7.0366  -20.6925    0.0000 C   0  0
    7.7476  -21.1038    0.0000 C   0  0
    8.4638  -20.6937    0.0000 N   0  0
    8.4645  -19.8677    0.0000 C   0  0
    7.7490  -19.4519    0.0000 C   0  0
    4.1798  -18.2168    0.0000 O   0  0
    3.4654  -18.6294    0.0000 C   0  0
    2.7509  -18.2171    0.0000 F   0  0
    3.4656  -19.4544    0.0000 F   0  0
    2.7458  -19.0375    0.0000 F   0  0
    5.6038  -17.3913    0.0000 N   0  0
    6.3170  -16.9767    0.0000 C   0  0
    7.0306  -17.3895    0.0000 N   0  0
    7.7433  -16.9755    0.0000 C   0  0
    7.7413  -16.1496    0.0000 C   0  0
    7.0206  -15.7395    0.0000 C   0  0
    6.3108  -16.1558    0.0000 N   0  0
    8.4613  -17.3878    0.0000 C   0  0
    8.4380  -18.2125    0.0000 C   0  0
    9.2151  -18.4894    0.0000 C   0  0
    9.7187  -17.8360    0.0000 C   0  0
    9.2528  -17.1551    0.0000 N   0  0
    9.4478  -19.2809    0.0000 C   0  0
    8.8787  -19.8782    0.0000 O   0  0
   10.2497  -19.4751    0.0000 N   0  0
    9.5298  -16.3779    0.0000 C   0  0
    9.1774  -21.1078    0.0000 C   0  0
 14 17  1  0
  4  5  1  0
  6 18  1  0
  2  3  1  0
 18 19  1  0
  5  6  2  0
 19 20  2  0
  7 12  1  0
 20 21  1  0
  8  9  1  0
 21 22  2  0
  9 10  1  0
 22 23  1  0
 10 11  1  0
 23 24  2  0
 24 19  1  0
 28 29  1  0
 11 12  1  0
  4  7  1  0
 26 27  1  0
  6  1  1  0
  1 13  1  0
  7  8  1  0
 25 26  2  0
 27 28  2  0
 29 25  1  0
 21 25  1  0
 13 14  1  0
 27 30  1  0
  1  2  2  0
 30 31  2  0
 14 15  1  0
 30 32  1  0
  3  4  2  0
 29 33  1  0
 14 16  1  0
 10 34  1  0
M  END
> <chembl_id>
CHEMBL1933576

$$$$

  SciTegic05221516342D

 37 40  0  0  0  0            999 V2000
   20.8411  -29.0061    0.0000 C   0  0
   20.8399  -29.8257    0.0000 C   0  0
   21.5480  -30.2346    0.0000 N   0  0
   22.2576  -29.8252    0.0000 C   0  0
   22.2548  -29.0025    0.0000 N   0  0
   21.5462  -28.5973    0.0000 C   0  0
   21.5443  -27.7802    0.0000 C   0  0
   22.2039  -27.2978    0.0000 C   0  0
   21.9491  -26.5214    0.0000 N   0  0
   20.8818  -27.3018    0.0000 C   0  0
   21.1286  -26.5206    0.0000 C   0  0
   20.5786  -25.9197    0.0000 C   0  0
   19.7788  -26.0941    0.0000 C   0  0
   19.5320  -26.8753    0.0000 C   0  0
   20.0849  -27.4819    0.0000 C   0  0
   22.9660  -30.2327    0.0000 N   0  0
   23.6731  -29.8230    0.0000 C   0  0
   24.3781  -30.2309    0.0000 C   0  0
   25.0847  -29.8219    0.0000 C   0  0
   25.0838  -29.0038    0.0000 C   0  0
   24.3705  -28.5965    0.0000 C   0  0
   23.6668  -29.0079    0.0000 C   0  0
   24.3782  -31.0481    0.0000 O   0  0
   23.6705  -31.4567    0.0000 C   0  0
   24.3663  -27.7793    0.0000 N   0  0
   23.6566  -27.3743    0.0000 C   0  0
   23.6524  -26.5571    0.0000 C   0  0
   22.9509  -27.7865    0.0000 O   0  0
   24.3580  -26.1449    0.0000 C   0  0
   25.7903  -28.5932    0.0000 N   0  0
   26.4992  -28.9997    0.0000 C   0  0
   25.7880  -27.7760    0.0000 C   0  0
   26.5016  -29.8169    0.0000 C   0  0
   27.2105  -30.2234    0.0000 N   0  0
   27.2129  -31.0406    0.0000 C   0  0
   27.9170  -29.8128    0.0000 C   0  0
   20.1299  -28.5959    0.0000 Cl  0  0
  1  2  2  0
  2  3  1  0
  3  4  2  0
  4  5  1  0
  5  6  2  0
  6  1  1  0
  7  8  2  0
  8  9  1  0
  9 11  1  0
 10  7  1  0
  6  7  1  0
 10 11  2  0
 10 15  1  0
 11 12  1  0
 12 13  2  0
 13 14  1  0
 14 15  2  0
  4 16  1  0
 16 17  1  0
 17 18  2  0
 18 19  1  0
 19 20  2  0
 20 21  1  0
 21 22  2  0
 22 17  1  0
 18 23  1  0
 23 24  1  0
 21 25  1  0
 25 26  1  0
 26 27  1  0
 26 28  2  0
 27 29  2  0
 20 30  1  0
 30 31  1  0
 30 32  1  0
 31 33  1  0
 33 34  1  0
 34 35  1  0
 34 36  1  0
  1 37  1  0
M  END
> <chembl_id>
CHEMBL3353408

$$$$

  SciTegic09291413392D

 46 51  0  0  0  0            999 V2000
    2.9058   -5.6650    0.0000 C   0  0
    3.1193   -4.8681    0.0000 C   0  0
    2.5360   -4.2848    0.0000 C   0  0
    1.7391   -4.4983    0.0000 C   0  0
    1.5255   -5.2952    0.0000 C   0  0
    2.1089   -5.8786    0.0000 C   0  0
    3.4892   -6.2484    0.0000 S   0  0
    4.0725   -6.8318    0.0000 O   0  0
    2.9058   -6.8318    0.0000 O   0  0
    4.0725   -5.6650    0.0000 N   0  0
    0.3409   -4.0440    0.0000 C   0  0
    1.1557   -3.9149    0.0000 C   0  0
    1.2848   -3.1001    0.0000 C   0  0
    0.5497   -2.7255    0.0000 C   0  0
   -0.0337   -3.3089    0.0000 S   0  0
    4.8694   -5.8786    0.0000 C   0  0
    5.0829   -6.6754    0.0000 C   0  0
    5.8798   -6.8890    0.0000 C   0  0
    6.4632   -6.3056    0.0000 C   0  0
    6.2497   -5.5087    0.0000 C   0  0
    5.4528   -5.2952    0.0000 C   0  0
    7.2601   -6.5191    0.0000 O   0  0
    9.0102   -4.7690    0.0000 N   0  0
    8.2133   -4.5555    0.0000 C   0  0
    7.6299   -5.1389    0.0000 C   0  0
    7.8434   -5.9358    0.0000 C   0  0
    8.6403   -6.1493    0.0000 C   0  0
    8.8539   -6.9462    0.0000 C   0  0
    9.6507   -7.1597    0.0000 C   0  0
   10.2341   -6.5763    0.0000 C   0  0
   10.0206   -5.7795    0.0000 C   0  0
    9.2237   -5.5659    0.0000 C   0  0
   11.0310   -6.7899    0.0000 O   0  0
   11.6144   -6.2065    0.0000 C   0  0
   12.4113   -6.4200    0.0000 C   0  0
   12.9946   -5.8367    0.0000 C   0  0
   13.7915   -6.0502    0.0000 N   0  0
   14.0050   -6.8471    0.0000 C   0  0
   14.8019   -7.0606    0.0000 C   0  0
   15.3853   -6.4772    0.0000 N   0  0
   15.1718   -5.6804    0.0000 C   0  0
   14.3749   -5.4668    0.0000 C   0  0
   16.1822   -6.6908    0.0000 C   0  0
    9.8643   -7.9566    0.0000 O   0  0
   10.6612   -8.1701    0.0000 C   0  0
    6.0934   -7.6859    0.0000 F   0  0
  1  2  1  0
  2  3  2  0
  3  4  1  0
  4  5  2  0
  5  6  1  0
  1  6  2  0
  7  8  2  0
  7  9  2  0
  7 10  1  0
  1  7  1  0
 11 12  2  0
 12 13  1  0
 13 14  2  0
 14 15  1  0
 11 15  1  0
  4 12  1  0
 16 17  1  0
 17 18  2  0
 18 19  1  0
 19 20  2  0
 20 21  1  0
 16 21  2  0
 23 24  2  0
 24 25  1  0
 25 26  2  0
 26 27  1  0
 27 28  2  0
 28 29  1  0
 29 30  2  0
 30 31  1  0
 31 32  2  0
 23 32  1  0
 27 32  1  0
 34 35  1  0
 35 36  1  0
 33 34  1  0
 37 38  1  0
 38 39  1  0
 39 40  1  0
 40 41  1  0
 41 42  1  0
 37 42  1  0
 40 43  1  0
 36 37  1  0
 30 33  1  0
 44 45  1  0
 29 44  1  0
 22 26  1  0
 19 22  1  0
 18 46  1  0
 10 16  1  0
M  END
> <chembl_id>
CHEMBL3263967

$$$$

  SciTegic09081514182D

 31 32  0  0  0  0            999 V2000
    1.2990   -0.7500    0.0000 C   0  0
    1.2990    0.7500    0.0000 C   0  0
    0.0000    1.5000    0.0000 C   0  0
   -1.2990    0.7500    0.0000 C   0  0
   -1.2990   -0.7500    0.0000 C   0  0
    0.0000   -1.5000    0.0000 C   0  0
   -2.5972   -1.5031    0.0000 C   0  0
   -2.5951   -3.0039    0.0000 C   0  0
   -3.8933   -3.7570    0.0000 C   0  0
   -3.8912   -5.2578    0.0000 C   0  0
   -4.9336   -3.1588    0.0000 O   0  0
   -5.1894   -6.0109    0.0000 C   0  0
   -5.1872   -7.5117    0.0000 C   0  0
   -6.2296   -5.4127    0.0000 O   0  0
   -6.4854   -8.2648    0.0000 C   0  0
   -6.4833   -9.7657    0.0000 C   0  0
   -7.7797  -10.5203    0.0000 C   0  0
   -7.7745  -12.0202    0.0000 C   0  0
   -6.4729  -12.7657    0.0000 C   0  0
   -5.1764  -12.0112    0.0000 C   0  0
   -5.1816  -10.5113    0.0000 C   0  0
    2.5973   -1.5031    0.0000 O   0  0
    2.5972    1.5031    0.0000 O   0  0
   -6.4708  -14.2666    0.0000 O   0  0
   -3.8726  -12.7545    0.0000 O   0  0
    2.5956   -2.7031    0.0000 C   0  0
   -2.8363  -12.1494    0.0000 C   0  0
    2.5955    2.7031    0.0000 C   0  0
   -2.3383    1.3500    0.0000 F   0  0
   -7.5088  -14.8687    0.0000 C   0  0
   -8.8210   -9.9239    0.0000 F   0  0
  1  2  2  0
  2  3  1  0
  3  4  2  0
  4  5  1  0
  5  6  2  0
  6  1  1  0
  5  7  1  0
  7  8  2  0
  8  9  1  0
  9 10  2  0
  9 11  1  0
 10 12  1  0
 12 13  1  0
 12 14  2  0
 13 15  2  0
 15 16  1  0
 16 17  2  0
 17 18  1  0
 18 19  2  0
 19 20  1  0
 20 21  2  0
 21 16  1  0
  1 22  1  0
  2 23  1  0
 19 24  1  0
 20 25  1  0
 22 26  1  0
 25 27  1  0
 23 28  1  0
  4 29  1  0
 24 30  1  0
 17 31  1  0
M  END
> <chembl_id>
CHEMBL3402867

$$$$

  SciTegic06061310022D

 38 44  0  0  0  0            999 V2000
    1.8027    0.9218    0.0000 N   0  0
    2.3547    0.3087    0.0000 C   0  0
    2.0998   -0.4759    0.0000 N   0  0
    0.9957    0.7503    0.0000 C   0  0
    0.7407   -0.0343    0.0000 C   0  0
    1.2928   -0.6474    0.0000 C   0  0
    0.8803   -1.3619    0.0000 N   0  0
    0.0733   -1.1903    0.0000 N   0  0
   -0.0129   -0.3699    0.0000 C   0  0
    0.4437    1.3634    0.0000 N   0  0
   -0.7274    0.0426    0.0000 C   0  0
   -1.4419   -0.3699    0.0000 C   0  0
   -1.4419    1.2801    0.0000 C   0  0
   -0.7274    0.8676    0.0000 C   0  0
    1.2158   -2.1155    0.0000 C   0  0  1  0  0  0
    0.7309   -2.7830    0.0000 C   0  0
    1.0665   -3.5367    0.0000 C   0  0
    1.8870   -3.6229    0.0000 C   0  0  1  0  0  0
    2.3719   -2.9555    0.0000 C   0  0
    2.0363   -2.2018    0.0000 C   0  0
    2.2225   -4.3766    0.0000 N   0  0
    3.0430   -4.4628    0.0000 C   0  0
    3.3785   -5.2165    0.0000 C   0  0
    2.8936   -5.8839    0.0000 O   0  0
    2.0731   -5.7977    0.0000 C   0  0
    1.7376   -5.0440    0.0000 C   0  0
   -2.1563    0.8676    0.0000 C   0  0
   -2.1563    0.0426    0.0000 C   0  0
   -2.9410   -0.2123    0.0000 N   0  0
   -3.4259    0.4551    0.0000 C   0  0
   -2.9410    1.1226    0.0000 N   0  0
   -4.2509    0.4551    0.0000 C   0  0
   -4.6634    1.1696    0.0000 C   0  0
   -5.4884    1.1696    0.0000 C   0  0
   -5.9009    1.8841    0.0000 C   0  0
   -5.4884    2.5985    0.0000 C   0  0
   -4.6634    2.5985    0.0000 C   0  0
   -4.2509    1.8841    0.0000 C   0  0
  9  5  1  0
 15 20  1  0
 16 17  1  0
 17 18  1  0
 18 19  1  0
 19 20  1  0
 15  7  1  6
 21 22  1  0
  4  1  1  0
  4 10  1  0
  5  6  1  0
 11 12  2  0
 12 28  1  0
 21 26  1  0
 22 23  1  0
 23 24  1  0
 24 25  1  0
 25 26  1  0
 18 21  1  1
 27 28  2  0
  2  3  1  0
 27 13  1  0
  3  6  2  0
 13 14  2  0
 14 11  1  0
 28 29  1  0
 29 30  1  0
 30 31  2  0
 31 27  1  0
  9 11  1  0
 30 32  1  0
 15 16  1  0
 32 33  1  0
  1  2  2  0
 33 34  2  0
  5  4  2  0
 34 35  1  0
  6  7  1  0
 35 36  2  0
  7  8  1  0
 36 37  1  0
  8  9  2  0
 37 38  2  0
 38 33  1  0
M  END
> <chembl_id>
CHEMBL249496

$$$$

  SciTegic04201616412D

 27 30  0  0  0  0            999 V2000
    0.0000    0.7486    0.0000 C   0  0
   -1.2964    1.4973    0.0000 C   0  0
    0.0000   -0.7486    0.0000 C   0  0
    1.2964    1.4973    0.0000 C   0  0
   -2.6111    0.7486    0.0000 N   0  0
    1.2964   -1.4973    0.0000 C   0  0
   -1.2907    2.9981    0.0000 N   0  0
    2.5929    0.7486    0.0000 C   0  0
    2.5929   -0.7486    0.0000 C   0  0
   -3.8807    6.0076    0.0000 C   0  0
   -1.2964   -1.4973    0.0000 N   0  0
   -2.5835    5.2544    0.0000 C   0  0
   -2.6111   -0.7486    0.0000 C   0  0
   -2.5870    3.7544    0.0000 C   0  0
   -5.1815    5.2608    0.0000 C   0  0
   -5.1852    3.7608    0.0000 C   0  0
   -3.8880    3.0076    0.0000 C   0  0
    3.8911   -1.5017    0.0000 O   0  0
    3.8894   -2.7017    0.0000 C   0  0
   -6.2259    3.1633    0.0000 Cl  0  0
    3.8926    1.4990    0.0000 N   0  0
    5.1929    0.7510    0.0000 C   0  0
    6.4908    1.5029    0.0000 C   0  0
    6.4885    3.0029    0.0000 O   0  0
    5.1883    3.7510    0.0000 C   0  0
    3.8904    2.9990    0.0000 C   0  0
   -6.2193    5.8633    0.0000 F   0  0
  2  1  1  0
  3  1  1  0
  4  1  2  0
  5  2  2  0
  6  3  2  0
  7  2  1  0
  8  4  1  0
  9  8  2  0
 10 12  1  0
 11  3  1  0
 12 14  2  0
 13 11  2  0
 14  7  1  0
 15 16  1  0
 16 17  2  0
 17 14  1  0
 18  9  1  0
 19 18  1  0
  6  9  1  0
 13  5  1  0
 10 15  2  0
 16 20  1  0
  8 21  1  0
 21 22  1  0
 21 26  1  0
 22 23  1  0
 23 24  1  0
 24 25  1  0
 25 26  1  0
 15 27  1  0
M  END
> <chembl_id>
CHEMBL3623283

$$$$

  SciTegic10311316282D

 36 41  0  0  0  0            999 V2000
   18.8030   -2.7534    0.0000 S   0  0
   18.5501   -3.5387    0.0000 O   0  0
   19.3566   -3.3651    0.0000 O   0  0
   13.7242   -6.5357    0.0000 N   0  0
   13.7241   -7.3631    0.0000 C   0  0
   14.4395   -7.7750    0.0000 N   0  0
   14.4356   -6.1220    0.0000 C   0  0
   15.1515   -6.5302    0.0000 C   0  0
   15.1528   -7.3567    0.0000 C   0  0
   15.9392   -7.6109    0.0000 N   0  0
   16.4240   -6.9414    0.0000 C   0  0
   15.9372   -6.2737    0.0000 C   0  0
   16.1995   -8.3971    0.0000 C   0  0
   15.7156   -9.0653    0.0000 C   0  0
   16.2016   -9.7320    0.0000 C   0  0
   16.9859   -9.4758    0.0000 C   0  0
   16.9845   -8.6509    0.0000 C   0  0
   14.4320   -5.2970    0.0000 N   0  0
   16.1909   -5.4887    0.0000 C   0  0
   16.9745   -5.2306    0.0000 N   0  0
   15.7044   -4.8201    0.0000 N   0  0
   16.1881   -4.1519    0.0000 C   0  0
   16.9690   -4.4058    0.0000 C   0  0
   17.5774   -3.8571    0.0000 C   0  0
   17.4061   -3.0542    0.0000 C   0  0
   16.6210   -2.8031    0.0000 C   0  0
   16.0160   -3.3535    0.0000 C   0  0
   18.0177   -2.5006    0.0000 N   0  0
   19.4146   -2.1998    0.0000 C   0  0
   20.2000   -2.4542    0.0000 C   0  0
   20.8113   -1.9013    0.0000 C   0  0
   20.6379   -1.0939    0.0000 C   0  0
   19.8477   -0.8422    0.0000 C   0  0
   19.2398   -1.3968    0.0000 C   0  0
   20.3728   -3.2609    0.0000 F   0  0
   18.4538   -1.1464    0.0000 F   0  0
  2  1  2  0
  1  3  2  0
  4  5  2  0
  5  6  1  0
  6  9  2  0
  8  7  2  0
  7  4  1  0
  8  9  1  0
  9 10  1  0
 10 11  1  0
 11 12  2  0
 12  8  1  0
 13 14  1  0
 14 15  1  0
 15 16  1  0
 16 17  1  0
 17 13  1  0
 10 13  1  0
  7 18  1  0
 12 19  1  0
 19 20  1  0
 20 23  1  0
 22 21  1  0
 21 19  2  0
 22 23  2  0
 23 24  1  0
 24 25  2  0
 25 26  1  0
 26 27  2  0
 27 22  1  0
 25 28  1  0
 28  1  1  0
  1 29  1  0
 29 30  2  0
 30 31  1  0
 31 32  2  0
 32 33  1  0
 33 34  2  0
 34 29  1  0
 30 35  1  0
 34 36  1  0
M  END
> <chembl_id>
CHEMBL2387004

$$$$

  SciTegic12171313022D

 30 33  0  0  0  0            999 V2000
   12.4504  -19.1627    0.0000 C   0  0
   12.4493  -19.9822    0.0000 C   0  0
   13.1573  -20.3912    0.0000 N   0  0
   13.8670  -19.9817    0.0000 C   0  0
   13.8642  -19.1591    0.0000 N   0  0
   13.1555  -18.7538    0.0000 C   0  0
   11.7426  -18.7543    0.0000 Cl  0  0
   13.1536  -17.9367    0.0000 C   0  0
   13.8133  -17.4544    0.0000 C   0  0
   13.5584  -16.6779    0.0000 N   0  0
   12.4911  -17.4583    0.0000 C   0  0
   12.7440  -16.6813    0.0000 C   0  0
   12.1980  -16.0757    0.0000 C   0  0
   11.3990  -16.2460    0.0000 C   0  0
   11.1489  -17.0273    0.0000 C   0  0
   11.6966  -17.6295    0.0000 C   0  0
   14.5753  -20.3892    0.0000 N   0  0
   15.2824  -19.9795    0.0000 C   0  0
   15.9874  -20.3874    0.0000 C   0  0
   16.6940  -19.9784    0.0000 C   0  0
   16.6932  -19.1604    0.0000 C   0  0
   15.9798  -18.7530    0.0000 C   0  0
   15.2762  -19.1644    0.0000 C   0  0
   15.9875  -21.2046    0.0000 O   0  0
   15.2799  -21.6133    0.0000 C   0  0
   15.9757  -17.9359    0.0000 N   0  0
   16.6813  -17.5237    0.0000 C   0  0
   16.6771  -16.7065    0.0000 C   0  0
   17.3911  -17.9286    0.0000 O   0  0
   17.3827  -16.2943    0.0000 C   0  0
  1  2  2  0
  2  3  1  0
  3  4  2  0
  4  5  1  0
  5  6  2  0
  6  1  1  0
  1  7  1  0
  8  9  2  0
  9 10  1  0
 10 12  1  0
 11  8  1  0
  6  8  1  0
 11 12  2  0
 12 13  1  0
 13 14  2  0
 14 15  1  0
 15 16  2  0
 16 11  1  0
  4 17  1  0
 17 18  1  0
 18 19  2  0
 19 20  1  0
 20 21  2  0
 21 22  1  0
 22 23  2  0
 23 18  1  0
 19 24  1  0
 24 25  1  0
 22 26  1  0
 26 27  1  0
 27 28  1  0
 27 29  2  0
 28 30  2  0
M  END
> <chembl_id>
CHEMBL2426282

$$$$

  SciTegic12091614152D

 29 31  0  0  0  0            999 V2000
    1.2990   -0.7500    0.0000 C   0  0
    1.2990    0.7500    0.0000 C   0  0
    0.0000    1.5000    0.0000 C   0  0
   -1.2990    0.7500    0.0000 C   0  0
   -1.2990   -0.7500    0.0000 C   0  0
    0.0000   -1.5000    0.0000 C   0  0
    2.5973   -1.5031    0.0000 N   0  0
   -0.0031    3.0008    0.0000 N   0  0
    1.2883   -5.2495    0.0000 C   0  0
    1.2935   -3.7495    0.0000 N   0  0
    2.5951   -3.0039    0.0000 C   0  0
    3.8915   -3.7585    0.0000 C   0  0
    3.8864   -5.2585    0.0000 C   0  0
    2.5847   -6.0040    0.0000 N   0  0
   -0.0125   -5.9981    0.0000 N   0  0
   -0.0155   -7.4989    0.0000 N   0  0
   -1.3163   -8.2475    0.0000 C   0  0
   -1.3194   -9.7484    0.0000 C   0  0
   -2.6184  -10.4985    0.0000 C   0  0
   -2.6184  -11.9985    0.0000 C   0  0
   -1.3193  -12.7484    0.0000 C   0  0
   -0.0203  -11.9984    0.0000 C   0  0
   -0.0203  -10.4984    0.0000 C   0  0
   -1.3193  -13.9484    0.0000 F   0  0
    4.9329   -3.1621    0.0000 Cl  0  0
   -1.3039    3.7494    0.0000 C   0  0
   -2.3421    3.1476    0.0000 O   0  0
   -1.3070    5.2502    0.0000 C   0  0
   -2.3471    5.8487    0.0000 C   0  0
  1  2  1  0
  2  3  2  0
  3  4  1  0
  4  5  2  0
  5  6  1  0
  1  6  2  0
  1  7  1  0
  3  8  1  0
  9 10  1  0
 10 11  2  0
 11 12  1  0
 12 13  2  0
 13 14  1  0
  9 14  2  0
 15 16  1  0
 17 18  1  0
 18 19  1  0
 19 20  2  0
 20 21  1  0
 21 22  2  0
 22 23  1  0
 18 23  2  0
 21 24  1  0
 16 17  2  0
  9 15  1  0
 12 25  1  0
  7 11  1  0
  8 26  1  0
 26 27  2  0
 26 28  1  0
 28 29  2  0
M  END
> <chembl_id>
CHEMBL3740577

$$$$

  SciTegic12231509382D

 32 34  0  0  0  0            999 V2000
   29.2856  -17.0708    0.0000 C   0  0
   29.6981  -17.7825    0.0000 C   0  0
   28.4606  -17.0708    0.0000 O   0  0
   29.6981  -16.3549    0.0000 N   0  0
   29.2856  -15.6391    0.0000 C   0  0
   29.6981  -14.9274    0.0000 C   0  0
   29.2856  -14.2116    0.0000 C   0  0
   28.4606  -14.2116    0.0000 C   0  0
   28.0481  -14.9274    0.0000 C   0  0
   28.4606  -15.6391    0.0000 C   0  0
   29.6981  -13.4998    0.0000 N   0  0
   29.2856  -12.7840    0.0000 C   0  0
   29.6981  -12.0681    0.0000 N   0  0
   29.2856  -11.3523    0.0000 C   0  0
   28.4606  -11.3523    0.0000 C   0  0
   28.0481  -12.0681    0.0000 C   0  0
   28.4606  -12.7840    0.0000 N   0  0
   29.6981  -10.6406    0.0000 N   0  0
   29.2856   -9.9247    0.0000 C   0  0
   29.6981   -9.2089    0.0000 C   0  0
   29.2856   -8.4971    0.0000 C   0  0
   28.4606   -8.4971    0.0000 C   0  0
   28.0481   -9.2089    0.0000 C   0  0
   28.4606   -9.9247    0.0000 C   0  0
   30.5231   -9.2089    0.0000 S   0  0
   30.5231  -10.0339    0.0000 O   0  0
   30.9383   -8.4939    0.0000 C   0  0
   30.5317   -7.7788    0.0000 C   0  0
   31.7645   -8.4985    0.0000 C   0  0
   28.0481  -10.6406    0.0000 Cl  0  0
   30.5231  -17.7825    0.0000 N   0  0
   31.2330   -9.6208    0.0000 O   0  0
  1  2  1  0
  1  3  2  0
  1  4  1  0
  5  6  1  0
  6  7  2  0
  7  8  1  0
  8  9  2  0
  9 10  1  0
  5 10  2  0
 12 13  1  0
 13 14  2  0
 14 15  1  0
 15 16  2  0
 16 17  1  0
 12 17  2  0
 19 20  1  0
 20 21  2  0
 21 22  1  0
 22 23  2  0
 23 24  1  0
 19 24  2  0
 25 26  2  0
 27 28  1  0
 27 29  1  0
 25 27  1  0
 20 25  1  0
 18 19  1  0
 14 18  1  0
 15 30  1  0
 11 12  1  0
  7 11  1  0
  4  5  1  0
  2 31  1  0
 25 32  2  0
M  END
> <chembl_id>
CHEMBL3357439

$$$$

  SciTegic12131613482D

 26 30  0  0  0  0            999 V2000
    0.8955    2.0810    0.0000 C   0  0
    1.7138    1.2033    0.0000 C   0  0
    2.8908    1.4370    0.0000 C   0  0
   -1.0028    1.5132    0.0000 N   0  0
   -2.3155    0.7475    0.0000 C   0  0
   -2.3155   -0.7475    0.0000 N   0  0
   -1.0028   -1.5132    0.0000 C   0  0
    0.2917    0.7475    0.0000 C   0  0
    0.2917   -0.7475    0.0000 C   0  0
    1.7138   -1.2033    0.0000 C   0  0
    2.5889    0.0182    0.0000 O   0  0
   -3.6168    1.4950    0.0000 C   0  0
   -4.9669    0.8708    0.0000 C   0  0
   -5.9732    1.9832    0.0000 N   0  0
   -5.2262    3.2840    0.0000 N   0  0
   -3.7582    2.9755    0.0000 C   0  0
   -0.9971   -3.0138    0.0000 N   0  0
   -2.2935   -3.7700    0.0000 C   0  0
   -4.6304   -4.2656    0.0000 S   0  0
   -3.6203   -3.1531    0.0000 N   0  0
   -3.8857   -5.5600    0.0000 C   0  0
   -2.4241   -5.2456    0.0000 C   0  0
   -1.4032   -6.3500    0.0000 C   0  0
   -1.8757   -7.7944    0.0000 C   0  0
   -3.3373   -8.1089    0.0000 C   0  0
   -4.3620   -6.9866    0.0000 C   0  0
  2  1  1  0
  3  2  1  0
  8  4  1  0
  4  5  2  0
  5  6  1  0
  6  7  2  0
  7  9  1  0
  8  9  2  0
  9 10  1  0
 10 11  1  0
 11  2  1  0
  2  8  1  0
  5 12  1  0
 12 13  2  0
 13 14  1  0
 14 15  1  0
 15 16  2  0
 16 12  1  0
  7 17  1  0
 17 18  1  0
 18 22  1  0
 21 19  1  0
 19 20  1  0
 20 18  2  0
 21 22  2  0
 22 23  1  0
 23 24  2  0
 24 25  1  0
 25 26  2  0
 26 21  1  0
M  END
> <chembl_id>
CHEMBL3758954

$$$$

  SciTegic10011413212D

 47 52  0  0  0  0            999 V2000
   18.3785  -15.4854    0.0000 C   0  0
   18.3785  -16.3026    0.0000 C   0  0
   19.0838  -16.7070    0.0000 N   0  0
   19.7891  -16.3026    0.0000 C   0  0
   19.7891  -15.4854    0.0000 C   0  0
   19.0838  -15.0726    0.0000 N   0  0
   19.0838  -17.5242    0.0000 C   0  0
   19.0843  -14.2563    0.0000 C   0  0
   19.7936  -13.8483    0.0000 C   0  0
   19.7939  -13.0319    0.0000 C   0  0
   19.0857  -12.6224    0.0000 C   0  0
   18.3756  -13.0354    0.0000 C   0  0
   18.3788  -13.8505    0.0000 C   0  0
   17.6665  -12.6293    0.0000 O   0  0
   16.9602  -13.0404    0.0000 C   0  0
   19.0846  -11.8053    0.0000 N   0  0
   19.7918  -11.3957    0.0000 C   0  0
   20.4983  -11.8076    0.0000 N   0  0
   20.4912  -10.1732    0.0000 C   0  0
   19.7874  -10.5844    0.0000 N   0  0
   21.2094  -11.3972    0.0000 C   0  0
   21.2044  -10.5806    0.0000 C   0  0
   21.8423  -10.0619    0.0000 C   0  0
   21.8566  -11.9044    0.0000 N   0  0
   22.6559  -11.7138    0.0000 C   0  0
   22.6406  -10.2332    0.0000 N   0  0
   23.0031  -10.9695    0.0000 C   0  0
   21.6516   -9.2673    0.0000 O   0  0
   23.1724  -12.3471    0.0000 O   0  0
   21.6841  -12.6988    0.0000 C   0  0
   20.9040  -12.9458    0.0000 C   0  0
   20.7293  -13.7433    0.0000 C   0  0
   21.3337  -14.2946    0.0000 C   0  0
   22.1156  -14.0428    0.0000 C   0  0
   22.2866  -13.2459    0.0000 C   0  0
   22.7216  -14.5911    0.0000 N   0  0
   22.5498  -15.3900    0.0000 C   0  0
   23.1558  -15.9382    0.0000 C   0  0
   21.7720  -15.6407    0.0000 O   0  0
   22.9841  -16.7372    0.0000 C   0  0
   23.1431   -9.5888    0.0000 C   0  0
   23.8157  -10.9599    0.0000 C   0  0
   24.2312  -11.6649    0.0000 C   0  0
   25.0476  -11.6567    0.0000 C   0  0
   25.4495  -10.9441    0.0000 C   0  0
   25.0290  -10.2385    0.0000 C   0  0
   24.2140  -10.2502    0.0000 C   0  0
  1  2  1  0
  1  6  1  0
  2  3  1  0
  3  4  1  0
  4  5  1  0
  5  6  1  0
  3  7  1  0
  8  9  2  0
  9 10  1  0
 10 11  2  0
 11 12  1  0
 12 13  2  0
 13  8  1  0
  6  8  1  0
 12 14  1  0
 14 15  1  0
 11 16  1  0
 16 17  1  0
 17 18  2  0
 18 21  1  0
 22 19  1  0
 19 20  2  0
 20 17  1  0
 21 22  2  0
 22 23  1  0
 21 24  1  0
 23 26  1  0
 24 25  1  0
 25 27  1  0
 26 27  1  0
 23 28  2  0
 25 29  2  0
 30 31  2  0
 31 32  1  0
 32 33  2  0
 33 34  1  0
 34 35  2  0
 35 30  1  0
 24 30  1  0
 34 36  1  0
 36 37  1  0
 37 38  1  0
 37 39  2  0
 38 40  2  0
 26 41  1  0
 42 43  2  0
 43 44  1  0
 44 45  2  0
 45 46  1  0
 46 47  2  0
 47 42  1  0
 27 42  1  0
M  END
> <chembl_id>
CHEMBL3219131

$$$$

  SciTegic12171313052D

 31 34  0  0  0  0            999 V2000
    6.2142  -10.5904    0.0000 C   0  0
    6.2130  -11.4100    0.0000 C   0  0
    6.9211  -11.8189    0.0000 C   0  0
    7.6308  -11.4095    0.0000 C   0  0
    7.6279  -10.5868    0.0000 C   0  0
    6.9193  -10.1816    0.0000 C   0  0
    6.9169   -9.3644    0.0000 N   0  0
    7.6233   -8.9537    0.0000 C   0  0
    8.3337   -9.3646    0.0000 N   0  0
    8.3238   -7.7302    0.0000 C   0  0
    7.6208   -8.1426    0.0000 N   0  0
    9.0377   -8.1365    0.0000 C   0  0
    9.0385   -8.9562    0.0000 C   0  0
    9.7449   -9.3632    0.0000 N   0  0
   10.4550   -8.9549    0.0000 C   0  0
   10.4543   -8.1351    0.0000 C   0  0
    9.7433   -7.7237    0.0000 N   0  0
    9.7461  -10.1777    0.0000 C   0  0
    9.0365  -10.5853    0.0000 C   0  0
    9.0359  -11.4018    0.0000 C   0  0
    9.7439  -11.8115    0.0000 C   0  0
   10.4542  -11.3988    0.0000 C   0  0
   10.4514  -10.5837    0.0000 C   0  0
   11.1626   -9.3638    0.0000 O   0  0
    6.9209  -12.6361    0.0000 O   0  0
    6.2131  -13.0445    0.0000 C   0  0
    9.7447  -12.6287    0.0000 N   0  0
   10.4527  -13.0366    0.0000 C   0  0
   10.4535  -13.8538    0.0000 O   0  0
   11.1601  -12.6274    0.0000 C   0  0
   11.8682  -13.0354    0.0000 C   0  0
  1  2  2  0
  2  3  1  0
  3  4  2  0
  4  5  1  0
  5  6  2  0
  6  1  1  0
  6  7  1  0
  7  8  1  0
  8  9  2  0
  9 13  1  0
 12 10  1  0
 10 11  2  0
 11  8  1  0
 12 13  2  0
 12 17  1  0
 13 14  1  0
 14 15  1  0
 15 16  1  0
 16 17  2  0
 18 19  2  0
 19 20  1  0
 20 21  2  0
 21 22  1  0
 22 23  2  0
 23 18  1  0
 14 18  1  0
 15 24  2  0
  3 25  1  0
 25 26  1  0
 21 27  1  0
 27 28  1  0
 28 29  2  0
 28 30  1  0
 30 31  1  0
M  END
> <chembl_id>
CHEMBL2437480

$$$$

  SciTegic12091611202D

 30 33  0  0  0  0            999 V2000
    2.8401   -9.4736    0.0000 C   0  0
   -4.9282   -3.7385    0.0000 C   0  0
    1.5604   -6.0143    0.0000 C   0  0  1  0  0  0
   -2.3155    0.7475    0.0000 N   0  0
   -2.3155   -0.7475    0.0000 C   0  0
    1.7138    1.2033    0.0000 N   0  0
   -1.0028    1.5132    0.0000 C   0  0
    1.7138   -1.2033    0.0000 N   0  0
   -2.3350   -5.2470    0.0000 C   0  0
   -1.0449   -7.5017    0.0000 C   0  0
   -3.6187   -1.4919    0.0000 N   0  0
    2.8477   -8.2736    0.0000 O   0  0
    1.5531   -7.5143    0.0000 C   0  0  1  0  0  0
    0.2917   -0.7475    0.0000 C   0  0
    2.5889    0.0182    0.0000 C   0  0
   -2.3301   -3.7470    0.0000 N   0  0
    0.2650   -5.2580    0.0000 C   0  0
   -3.6267   -2.9927    0.0000 C   0  0
   -4.9331   -5.2385    0.0000 C   0  0
   -1.0028   -1.5132    0.0000 C   0  0
   -3.6365   -5.9928    0.0000 N   0  0
    0.2505   -8.2579    0.0000 C   0  0
    0.2917    0.7475    0.0000 C   0  0
   -1.0378   -6.0016    0.0000 N   0  0
    2.1855   -2.6254    0.0000 C   0  0
    3.3606   -2.8684    0.0000 C   0  0
    1.3877   -3.5218    0.0000 C   0  0
    4.0872    0.0382    0.0000 C   0  0
    2.6025   -5.4193    0.0000 F   0  0
    4.6738    1.0851    0.0000 O   0  0
 12  1  1  0
 13 12  1  1
 17  3  1  0
 24 17  1  0
 11  5  1  0
  5  4  1  0
 14  8  1  0
 18  2  1  0
 15  6  2  0
  3 13  1  0
 16 18  2  0
 23  6  1  0
 15  8  1  0
 22 10  1  0
 11 18  1  0
  7 23  1  0
 23 14  2  0
  7  4  2  0
 14 20  1  0
 19 21  1  0
 20  5  2  0
  9 24  1  0
  2 19  2  0
 24 10  1  0
  9 21  2  0
  9 16  1  0
 13 22  1  0
  8 25  1  0
 25 26  1  0
 25 27  1  0
 15 28  1  0
  3 29  1  1
 28 30  1  0
M  END
> <chembl_id>
CHEMBL3734933

$$$$

  SciTegic09291413392D

 47 52  0  0  0  0            999 V2000
    0.7212   -6.4761    0.0000 N   0  0
    0.8927   -5.6691    0.0000 N   0  0
    1.7132   -5.5829    0.0000 C   0  0
    2.0488   -6.3365    0.0000 C   0  0
    1.4357   -6.8886    0.0000 C   0  0
    2.8557   -6.5081    0.0000 C   0  0
    3.0693   -7.3049    0.0000 O   0  0
    3.4391   -5.9247    0.0000 N   0  0
    0.3407   -5.0560    0.0000 C   0  0
   -0.4663   -5.2275    0.0000 C   0  0
   -1.0183   -4.6144    0.0000 C   0  0
   -0.7634   -3.8298    0.0000 C   0  0
    0.0436   -3.6583    0.0000 C   0  0
    0.5956   -4.2714    0.0000 C   0  0
    2.1257   -4.8684    0.0000 O   0  0
    1.5219   -7.7090    0.0000 C   0  0
   -0.0325   -6.8116    0.0000 C   0  0
    4.2360   -6.1382    0.0000 C   0  0
    4.8194   -5.5549    0.0000 C   0  0
    5.6162   -5.7684    0.0000 C   0  0
    5.8298   -6.5653    0.0000 C   0  0
    5.2464   -7.1486    0.0000 C   0  0
    4.4495   -6.9351    0.0000 C   0  0
    6.6267   -6.7788    0.0000 O   0  0
    8.3767   -5.0287    0.0000 N   0  0
    7.5799   -4.8152    0.0000 C   0  0
    6.9965   -5.3985    0.0000 C   0  0
    7.2100   -6.1954    0.0000 C   0  0
    8.0069   -6.4090    0.0000 C   0  0
    8.2204   -7.2058    0.0000 C   0  0
    9.0173   -7.4194    0.0000 C   0  0
    9.6007   -6.8360    0.0000 C   0  0
    9.3872   -6.0391    0.0000 C   0  0
    8.5903   -5.8256    0.0000 C   0  0
   10.3976   -7.0495    0.0000 O   0  0
   10.9809   -6.4662    0.0000 C   0  0
   11.7778   -6.6797    0.0000 C   0  0
   12.3612   -6.0963    0.0000 C   0  0
   13.1581   -6.3099    0.0000 N   0  0
   13.3716   -7.1068    0.0000 C   0  0
   14.1685   -7.3203    0.0000 C   0  0
   14.7519   -6.7369    0.0000 O   0  0
   14.5383   -5.9400    0.0000 C   0  0
   13.7414   -5.7265    0.0000 C   0  0
    9.2309   -8.2163    0.0000 O   0  0
   10.0277   -8.4298    0.0000 C   0  0
    6.1996   -5.1850    0.0000 F   0  0
  1  2  1  0
  2  3  1  0
  3  4  1  0
  4  5  2  0
  1  5  1  0
  6  7  2  0
  6  8  1  0
  4  6  1  0
  9 10  1  0
 10 11  2  0
 11 12  1  0
 12 13  2  0
 13 14  1  0
  9 14  2  0
  2  9  1  0
  3 15  2  0
  5 16  1  0
  1 17  1  0
 18 19  1  0
 19 20  2  0
 20 21  1  0
 21 22  2  0
 22 23  1  0
 18 23  2  0
 25 26  2  0
 26 27  1  0
 27 28  2  0
 28 29  1  0
 29 30  2  0
 30 31  1  0
 31 32  2  0
 32 33  1  0
 33 34  2  0
 25 34  1  0
 29 34  1  0
 36 37  1  0
 37 38  1  0
 35 36  1  0
 39 40  1  0
 40 41  1  0
 41 42  1  0
 42 43  1  0
 43 44  1  0
 39 44  1  0
 38 39  1  0
 32 35  1  0
 45 46  1  0
 31 45  1  0
 24 28  1  0
 21 24  1  0
 20 47  1  0
  8 18  1  0
M  END
> <chembl_id>
CHEMBL3263958

$$$$

  SciTegic12191611242D

 30 33  0  0  0  0            999 V2000
   -8.4598    0.3211    0.0000 C   0  0
   -7.2652    0.2078    0.0000 N   0  0
   -6.5020   -1.0835    0.0000 N   0  0
   -5.0380   -0.7567    0.0000 C   0  0
   -6.2729    1.3327    0.0000 C   0  0
   -4.9153    0.7255    0.0000 C   0  0
   -3.6217    1.4865    0.0000 N   0  0
   -2.3155    0.7475    0.0000 C   0  0
   -1.0028    1.5132    0.0000 N   0  0
    0.2917    0.7475    0.0000 C   0  0
    0.2917   -0.7475    0.0000 C   0  0
    1.7138   -1.2033    0.0000 C   0  0
    2.0907   -2.3426    0.0000 Cl  0  0
    2.5889    0.0182    0.0000 C   0  0
    1.7138    1.2033    0.0000 N   0  0
   -1.0028   -1.5132    0.0000 C   0  0
   -0.9971   -3.0138    0.0000 O   0  0
   -2.2935   -3.7700    0.0000 C   0  0
   -2.2878   -5.2708    0.0000 C   0  0  1  0  0  0
   -1.0692   -6.1235    0.0000 C   0  0
   -1.5244   -7.5527    0.0000 N   0  0
   -0.6391   -8.7615    0.0000 C   0  0
   -1.2435  -10.1353    0.0000 C   0  0
   -0.5345  -11.1034    0.0000 C   0  0
    0.5538   -8.6312    0.0000 O   0  0
   -3.0244   -7.5615    0.0000 C   0  0
   -3.4962   -6.1377    0.0000 C   0  0  2  0  0  0
   -4.9212   -5.6751    0.0000 O   0  0
   -5.8133   -6.4777    0.0000 C   0  0
   -2.3155   -0.7475    0.0000 N   0  0
  1  2  1  0
  2  3  1  0
  3  4  2  0
  2  5  1  0
  5  6  2  0
  4  6  1  0
  6  7  1  0
  7  8  1  0
  8  9  2  0
  9 10  1  0
 10 11  2  0
 11 12  1  0
 12 13  1  0
 12 14  2  0
 14 15  1  0
 10 15  1  0
 11 16  1  0
 16 17  1  0
 17 18  1  0
 19 18  1  1
 19 20  1  0
 20 21  1  0
 21 22  1  0
 22 23  1  0
 23 24  2  0
 22 25  2  0
 21 26  1  0
 26 27  1  0
 19 27  1  0
 27 28  1  6
 28 29  1  0
 16 30  2  0
  8 30  1  0
M  END
> <chembl_id>
CHEMBL3786098

$$$$

  Mrv0541 04051115152D          

 30 34  0  0  0  0            999 V2000
    0.0993   -2.9538    0.0000 C   0  0  0  0  0  0  0  0  0  0  0  0
   -0.3856   -3.6212    0.0000 C   0  0  0  0  0  0  0  0  0  0  0  0
   -0.1306   -4.4058    0.0000 N   0  0  0  0  0  0  0  0  0  0  0  0
   -0.7981   -4.8907    0.0000 N   0  0  0  0  0  0  0  0  0  0  0  0
   -1.4655   -4.4058    0.0000 C   0  0  0  0  0  0  0  0  0  0  0  0
   -2.2725   -4.5773    0.0000 C   0  0  0  0  0  0  0  0  0  0  0  0
   -2.8245   -3.9642    0.0000 C   0  0  0  0  0  0  0  0  0  0  0  0
   -2.5696   -3.1796    0.0000 C   0  0  0  0  0  0  0  0  0  0  0  0
   -1.7626   -3.0081    0.0000 C   0  0  0  0  0  0  0  0  0  0  0  0
   -1.2106   -3.6212    0.0000 C   0  0  0  0  0  0  0  0  0  0  0  0
   -3.1216   -2.5665    0.0000 C   0  0  0  0  0  0  0  0  0  0  0  0
   -3.9286   -2.7381    0.0000 C   0  0  0  0  0  0  0  0  0  0  0  0
   -4.4806   -2.1250    0.0000 N   0  0  0  0  0  0  0  0  0  0  0  0
   -4.2257   -1.3403    0.0000 C   0  0  0  0  0  0  0  0  0  0  0  0
   -3.4187   -1.1688    0.0000 C   0  0  0  0  0  0  0  0  0  0  0  0
   -3.1638   -0.3842    0.0000 O   0  0  0  0  0  0  0  0  0  0  0  0
   -2.3568   -0.2127    0.0000 C   0  0  0  0  0  0  0  0  0  0  0  0
   -2.1019    0.5720    0.0000 C   0  0  1  0  0  0  0  0  0  0  0  0
   -2.6539    1.1851    0.0000 N   0  0  0  0  0  0  0  0  0  0  0  0
   -1.2949    0.7435    0.0000 C   0  0  0  0  0  0  0  0  0  0  0  0
   -1.0400    1.5281    0.0000 C   0  0  0  0  0  0  0  0  0  0  0  0
   -1.5249    2.1955    0.0000 C   0  0  0  0  0  0  0  0  0  0  0  0
   -1.0400    2.8630    0.0000 N   0  0  0  0  0  0  0  0  0  0  0  0
   -0.2553    2.6080    0.0000 C   0  0  0  0  0  0  0  0  0  0  0  0
    0.4591    3.0205    0.0000 C   0  0  0  0  0  0  0  0  0  0  0  0
    1.1736    2.6080    0.0000 C   0  0  0  0  0  0  0  0  0  0  0  0
    1.1736    1.7830    0.0000 C   0  0  0  0  0  0  0  0  0  0  0  0
    0.4591    1.3705    0.0000 C   0  0  0  0  0  0  0  0  0  0  0  0
   -0.2553    1.7830    0.0000 C   0  0  0  0  0  0  0  0  0  0  0  0
   -2.8667   -1.7819    0.0000 C   0  0  0  0  0  0  0  0  0  0  0  0
  1  2  1  0  0  0  0
  2  3  2  0  0  0  0
 10  2  1  0  0  0  0
  3  4  1  0  0  0  0
  5  4  1  0  0  0  0
  5  6  2  0  0  0  0
 10  5  1  0  0  0  0
  6  7  1  0  0  0  0
  7  8  2  0  0  0  0
  9  8  1  0  0  0  0
 11  8  1  0  0  0  0
  9 10  2  0  0  0  0
 11 12  1  0  0  0  0
 11 30  2  0  0  0  0
 12 13  2  0  0  0  0
 14 13  1  0  0  0  0
 14 15  2  0  0  0  0
 15 16  1  0  0  0  0
 15 30  1  0  0  0  0
 17 16  1  0  0  0  0
 17 18  1  0  0  0  0
 18 19  1  1  0  0  0
 18 20  1  0  0  0  0
 20 21  1  0  0  0  0
 21 22  2  0  0  0  0
 21 29  1  0  0  0  0
 22 23  1  0  0  0  0
 24 23  1  0  0  0  0
 24 25  2  0  0  0  0
 24 29  1  0  0  0  0
 25 26  1  0  0  0  0
 26 27  2  0  0  0  0
 27 28  1  0  0  0  0
 28 29  2  0  0  0  0
M  END
> <chembl_id>
CHEMBL379300

$$$$

  SciTegic02271217242D

 26 29  0  0  0  0            999 V2000
   -2.2128  -25.4569    0.0000 N   0  0
   -1.4963  -25.0435    0.0000 C   0  0
   -1.4992  -24.2130    0.0000 N   0  0
   -2.2146  -23.8039    0.0000 C   0  0
   -2.9276  -25.0440    0.0000 C   0  0
   -2.9263  -24.2151    0.0000 C   0  0
   -3.7143  -23.9577    0.0000 N   0  0
   -4.2026  -24.6276    0.0000 C   0  0
   -3.7163  -25.2989    0.0000 C   0  0
   -2.2164  -22.9789    0.0000 N   0  0
   -1.5028  -22.5648    0.0000 C   0  0
   -0.7906  -22.9787    0.0000 C   0  0
   -0.0775  -22.5653    0.0000 C   0  0
   -0.0788  -21.7394    0.0000 C   0  0
   -0.7992  -21.3287    0.0000 C   0  0
   -1.5094  -21.7444    0.0000 C   0  0
    0.6377  -22.9766    0.0000 Cl  0  0
    0.6342  -21.3244    0.0000 O   0  0
    1.3501  -21.7344    0.0000 C   0  0
    1.3501  -22.5594    0.0000 C   0  0
    2.0652  -22.9693    0.0000 C   0  0
    2.7792  -22.5542    0.0000 C   0  0
    2.7736  -21.7250    0.0000 C   0  0
    2.0580  -21.3188    0.0000 C   0  0
    3.4816  -21.3054    0.0000 C   0  0
    4.1931  -20.8878    0.0000 N   0  0
  5  1  1  0
 12 13  1  0
  2  3  1  0
 13 14  2  0
 14 15  1  0
  3  4  2  0
 15 16  2  0
 16 11  1  0
  6  7  1  0
 13 17  1  0
  7  8  1  0
 14 18  1  0
  8  9  2  0
 18 19  1  0
  9  5  1  0
 19 20  2  0
  4  6  1  0
 20 21  1  0
  4 10  1  0
 21 22  2  0
  5  6  2  0
 22 23  1  0
 10 11  1  0
 23 24  2  0
 24 19  1  0
  1  2  2  0
 11 12  2  0
 25 26  3  0
 23 25  1  0
M  END
> <chembl_id>
CHEMBL1922902

$$$$

  SciTegic02271217242D

 29 32  0  0  0  0            999 V2000
   -2.9753  -10.1777    0.0000 N   0  0
   -2.2588   -9.7644    0.0000 C   0  0
   -2.2617   -8.9338    0.0000 N   0  0
   -2.9771   -8.5247    0.0000 C   0  0
   -3.6901   -9.7648    0.0000 C   0  0
   -3.6888   -8.9359    0.0000 C   0  0
   -4.4768   -8.6786    0.0000 N   0  0
   -4.9651   -9.3485    0.0000 C   0  0
   -4.4788  -10.0197    0.0000 C   0  0
   -2.9789   -7.6997    0.0000 N   0  0
   -2.2653   -7.2856    0.0000 C   0  0
   -1.5531   -7.6995    0.0000 C   0  0
   -0.8400   -7.2861    0.0000 C   0  0
   -0.8413   -6.4603    0.0000 C   0  0
   -1.5617   -6.0495    0.0000 C   0  0
   -2.2719   -6.4652    0.0000 C   0  0
   -0.1248   -7.6974    0.0000 Cl  0  0
   -0.1283   -6.0452    0.0000 O   0  0
    0.5876   -6.4552    0.0000 C   0  0
    0.5876   -7.2803    0.0000 C   0  0
    1.3027   -7.6902    0.0000 C   0  0
    2.0167   -7.2751    0.0000 C   0  0
    2.0111   -6.4458    0.0000 C   0  0
    1.2955   -6.0397    0.0000 C   0  0
    1.2895   -5.2147    0.0000 O   0  0
    2.0009   -4.7970    0.0000 C   0  0
    1.9949   -3.9720    0.0000 F   0  0
    2.7184   -5.2042    0.0000 F   0  0
    2.7125   -4.3792    0.0000 F   0  0
 13 14  2  0
 14 15  1  0
  3  4  2  0
 15 16  2  0
 16 11  1  0
  6  7  1  0
 13 17  1  0
  7  8  1  0
 14 18  1  0
  8  9  2  0
 18 19  1  0
  9  5  1  0
 19 20  2  0
  4  6  1  0
 20 21  1  0
  4 10  1  0
 21 22  2  0
  5  6  2  0
 22 23  1  0
 10 11  1  0
 23 24  2  0
 24 19  1  0
  1  2  2  0
 24 25  1  0
 11 12  2  0
 25 26  1  0
  5  1  1  0
 26 27  1  0
 12 13  1  0
 26 28  1  0
  2  3  1  0
 26 29  1  0
M  END
> <chembl_id>
CHEMBL1922906

$$$$

  SciTegic12171313052D

 33 36  0  0  0  0            999 V2000
    0.5888   -3.5907    0.0000 C   0  0
    0.5876   -4.4102    0.0000 C   0  0
    1.2957   -4.8192    0.0000 C   0  0
    2.0053   -4.4097    0.0000 C   0  0
    2.0025   -3.5871    0.0000 C   0  0
    1.2939   -3.1818    0.0000 C   0  0
    1.2914   -2.3646    0.0000 N   0  0
    1.9979   -1.9539    0.0000 C   0  0
    2.7083   -2.3648    0.0000 N   0  0
    2.6984   -0.7304    0.0000 C   0  0
    1.9953   -1.1428    0.0000 N   0  0
    3.4123   -1.1367    0.0000 C   0  0
    3.4131   -1.9565    0.0000 C   0  0
    4.1195   -2.3634    0.0000 N   0  0
    4.8296   -1.9551    0.0000 C   0  0
    4.8288   -1.1354    0.0000 C   0  0
    4.1179   -0.7239    0.0000 N   0  0
    4.1206   -3.1779    0.0000 C   0  0
    3.4111   -3.5856    0.0000 C   0  0
    3.4104   -4.4020    0.0000 C   0  0
    4.1185   -4.8117    0.0000 C   0  0
    4.8287   -4.3990    0.0000 C   0  0
    4.8259   -3.5840    0.0000 C   0  0
    5.5372   -2.3640    0.0000 O   0  0
    5.5377   -4.8054    0.0000 N   0  0
    6.2442   -4.3946    0.0000 C   0  0
    6.9531   -4.8010    0.0000 C   0  0
    6.2416   -3.5775    0.0000 O   0  0
    7.6596   -4.3903    0.0000 C   0  0
    8.3685   -4.7967    0.0000 C   0  0
    9.0750   -4.3859    0.0000 N   0  0
    9.7839   -4.7923    0.0000 C   0  0
    9.0724   -3.5687    0.0000 C   0  0
  1  2  2  0
  2  3  1  0
  3  4  2  0
  4  5  1  0
  5  6  2  0
  6  1  1  0
  6  7  1  0
  7  8  1  0
  8  9  2  0
  9 13  1  0
 12 10  1  0
 10 11  2  0
 11  8  1  0
 12 13  2  0
 12 17  1  0
 13 14  1  0
 14 15  1  0
 15 16  1  0
 16 17  2  0
 18 19  2  0
 19 20  1  0
 20 21  2  0
 21 22  1  0
 22 23  2  0
 23 18  1  0
 14 18  1  0
 15 24  2  0
 22 25  1  0
 25 26  1  0
 26 27  1  0
 26 28  2  0
 27 29  2  0
 29 30  1  0
 30 31  1  0
 31 32  1  0
 31 33  1  0
M  END
> <chembl_id>
CHEMBL2437486

$$$$

  SciTegic12191611242D

 33 36  0  0  0  0            999 V2000
    2.0825    2.3453    0.0000 Cl  0  0
    1.7138    1.2033    0.0000 C   0  0
    2.5889    0.0182    0.0000 C   0  0
    1.7138   -1.2033    0.0000 N   0  0
    0.2917   -0.7475    0.0000 C   0  0
    0.2917    0.7475    0.0000 C   0  0
   -1.0028    1.5132    0.0000 C   0  0
   -0.9971    3.0138    0.0000 O   0  0
   -2.2935    3.7700    0.0000 C   0  0
   -2.2878    5.2708    0.0000 C   0  0  1  0  0  0
   -1.0692    6.1235    0.0000 C   0  0
   -1.5244    7.5527    0.0000 N   0  0
   -0.6391    8.7615    0.0000 C   0  0
   -1.2435   10.1353    0.0000 C   0  0
   -0.5345   11.1034    0.0000 C   0  0
    0.5538    8.6312    0.0000 O   0  0
   -3.0244    7.5615    0.0000 C   0  0
   -3.4962    6.1377    0.0000 C   0  0  2  0  0  0
   -4.9212    5.6751    0.0000 O   0  0
   -5.8133    6.4777    0.0000 C   0  0
   -2.3155    0.7475    0.0000 N   0  0
   -2.3155   -0.7475    0.0000 C   0  0
   -3.6187   -1.4919    0.0000 N   0  0
   -3.6267   -2.9927    0.0000 C   0  0
   -4.8430   -3.8486    0.0000 C   0  0
   -4.3841   -5.2767    0.0000 N   0  0
   -5.2662   -6.4877    0.0000 C   0  0
   -4.6582   -7.8599    0.0000 C   0  0
   -5.5418   -9.0731    0.0000 C   0  0
   -6.2482  -10.0431    0.0000 C   0  0
   -2.8841   -5.2815    0.0000 N   0  0
   -2.4160   -3.8564    0.0000 C   0  0
   -1.0028   -1.5132    0.0000 N   0  0
  1  2  1  0
  2  3  2  0
  3  4  1  0
  4  5  1  0
  5  6  2  0
  2  6  1  0
  6  7  1  0
  7  8  1  0
  8  9  1  0
 10  9  1  6
 10 11  1  0
 11 12  1  0
 12 13  1  0
 13 14  1  0
 14 15  2  0
 13 16  2  0
 12 17  1  0
 17 18  1  0
 10 18  1  0
 18 19  1  1
 19 20  1  0
  7 21  2  0
 21 22  1  0
 22 23  1  0
 23 24  1  0
 24 25  2  0
 25 26  1  0
 26 27  1  0
 27 28  1  0
 28 29  1  0
 29 30  3  0
 26 31  1  0
 31 32  2  0
 24 32  1  0
 22 33  2  0
  5 33  1  0
M  END
> <chembl_id>
CHEMBL3786812

$$$$

  SciTegic12201611512D

 31 34  0  0  0  0            999 V2000
   -2.1332   -2.2973    0.0000 N   0  0
   -3.4277   -1.5498    0.0000 C   0  0
   -3.4277    0.0000    0.0000 N   0  0
   -2.1332    0.6928    0.0000 C   0  0
   -0.8205    0.0000    0.0000 C   0  0
    0.4558    0.6928    0.0000 C   0  0
    1.7503    0.0000    0.0000 C   0  0
    1.7503   -1.5498    0.0000 C   0  0
    0.4558   -2.2973    0.0000 C   0  0
   -0.8205   -1.5498    0.0000 C   0  0
    0.4558    2.1879    0.0000 O   0  0
    3.0631    0.6928    0.0000 O   0  0
    3.0631    2.1879    0.0000 C   0  0
    1.7503    2.9537    0.0000 C   0  0
   -2.1454    2.1947    0.0000 N   0  0
   -3.4508    2.9353    0.0000 C   0  0
   -3.4653    4.4352    0.0000 C   0  0
   -4.7714    5.1728    0.0000 C   0  0
   -6.0632    4.4104    0.0000 C   0  0
   -6.0489    2.9104    0.0000 C   0  0
   -4.7427    2.1729    0.0000 C   0  0
   -4.7827    6.6736    0.0000 N   0  3
   -3.7484    7.2820    0.0000 O   0  0
   -5.8266    7.2654    0.0000 O   0  5
   -7.1082    5.0004    0.0000 C   0  0
    3.0410   -2.3153    0.0000 O   0  0
    3.0239   -3.8160    0.0000 C   0  0
    1.9778   -4.4039    0.0000 C   0  0
    4.3146   -4.5820    0.0000 O   0  0
    4.2976   -6.0827    0.0000 C   0  0
    5.3296   -6.6951    0.0000 C   0  0
  1  2  1  0
  2  3  2  0
  3  4  1  0
  4  5  2  0
  5  6  1  0
  6  7  2  0
  7  8  1  0
  8  9  2  0
  9 10  1  0
  1 10  2  0
  5 10  1  0
 12 13  1  0
 13 14  1  0
 11 14  1  0
  6 11  1  0
  7 12  1  0
  4 15  1  0
 16 17  1  0
 17 18  2  0
 18 19  1  0
 19 20  2  0
 20 21  1  0
 16 21  2  0
 22 23  2  0
 22 24  1  0
 18 22  1  0
 19 25  1  0
 15 16  1  0
 27 28  1  0
 26 27  1  0
 30 31  1  0
 29 30  1  0
 27 29  1  0
  8 26  1  0
M  CHG  2  22   1  24  -1
M  END
> <chembl_id>
CHEMBL3805260

$$$$

          11280715532D 1   1.00000     0.00000     0

 35 36  0     0  0            999 V2000
    9.7838  -24.7027    0.0000 C   0  0  0  0  0  0           0  0  0
   10.5054  -24.3031    0.0000 C   0  0  0  0  0  0           0  0  0
   11.2124  -24.7284    0.0000 C   0  0  0  0  0  0           0  0  0
   11.9341  -24.3288    0.0000 C   0  0  0  0  0  0           0  0  0
   12.6411  -24.7540    0.0000 C   0  0  0  0  0  0           0  0  0
   11.9489  -23.5039    0.0000 O   0  0  0  0  0  0           0  0  0
   13.3629  -24.3544    0.0000 C   0  0  0  0  0  0           0  0  0
   14.0698  -24.7796    0.0000 C   0  0  0  0  0  0           0  0  0
   14.7915  -24.3801    0.0000 C   0  0  0  0  0  0           0  0  0
   15.4984  -24.8056    0.0000 C   0  0  0  0  0  0           0  0  0
   13.3556  -23.5258    0.0000 O   0  0  0  0  0  0           0  0  0
    9.0794  -24.2774    0.0000 C   0  0  0  0  0  0           0  0  0
    8.3582  -24.6763    0.0000 C   0  0  0  0  0  0           0  0  0
    8.3429  -25.5021    0.0000 C   0  0  0  0  0  0           0  0  0
    9.0549  -25.9272    0.0000 C   0  0  0  0  0  0           0  0  0
    9.7732  -25.5259    0.0000 C   0  0  0  0  0  0           0  0  0
   15.4783  -25.6305    0.0000 C   0  0  0  0  0  0           0  0  0
   16.1844  -26.0558    0.0000 C   0  0  0  0  0  0           0  0  0
   16.9072  -25.6563    0.0000 C   0  0  0  0  0  0           0  0  0
   16.9197  -24.8272    0.0000 C   0  0  0  0  0  0           0  0  0
   16.2130  -24.4055    0.0000 C   0  0  0  0  0  0           0  0  0
    7.6216  -25.9026    0.0000 O   0  0  0  0  0  0           0  0  0
   17.6146  -26.0809    0.0000 O   0  0  0  0  0  0           0  0  0
    7.6514  -24.2508    0.0000 O   0  0  0  0  0  0           0  0  0
   17.6401  -24.4252    0.0000 O   0  0  0  0  0  0           0  0  0
    6.9142  -25.4783    0.0000 C   0  0  0  0  0  0           0  0  0
    7.6666  -23.4259    0.0000 C   0  0  0  0  0  0           0  0  0
   17.6522  -23.6004    0.0000 C   0  0  0  0  0  0           0  0  0
   12.6263  -25.5789    0.0000 C   0  0  0  0  0  0           0  0  0
   11.9045  -25.9785    0.0000 C   0  0  0  0  0  0           0  0  0
   11.8897  -26.8034    0.0000 C   0  0  0  0  0  0           0  0  0
   11.1704  -27.2049    0.0000 O   0  0  0  0  0  0           0  0  0
   12.5991  -27.2305    0.0000 O   0  0  0  0  0  0           0  0  0
   10.4620  -26.7821    0.0000 C   0  0  0  0  0  0           0  0  0
    9.7416  -27.1842    0.0000 C   0  0  0  0  0  0           0  0  0
  8  9  2  0     0  0
 17 18  2  0     0  0
  4  5  1  0     0  0
 18 19  1  0     0  0
  9 10  1  0     0  0
 19 20  2  0     0  0
  2  3  2  0     0  0
 20 21  1  0     0  0
 21 10  2  0     0  0
  7 11  1  0     0  0
 14 22  1  0     0  0
  4  6  2  0     0  0
 19 23  1  0     0  0
  1 12  2  0     0  0
 13 24  1  0     0  0
  1  2  1  0     0  0
 20 25  1  0     0  0
 12 13  1  0     0  0
 22 26  1  0     0  0
  5  7  2  0     0  0
 24 27  1  0     0  0
 13 14  2  0     0  0
 25 28  1  0     0  0
  3  4  1  0     0  0
  5 29  1  0     0  0
 14 15  1  0     0  0
 29 30  1  0     0  0
  7  8  1  0     0  0
 30 31  1  0     0  0
 15 16  2  0     0  0
 16  1  1  0     0  0
 31 32  1  0     0  0
 31 33  2  0     0  0
 32 34  1  0     0  0
 10 17  1  0     0  0
 34 35  1  0     0  0
M  END
> <chembl_id>
CHEMBL211758

$$$$

  SciTegic12091614152D

 34 36  0  0  0  0            999 V2000
    1.2990   -0.7500    0.0000 C   0  0
    1.2990    0.7500    0.0000 C   0  0
    0.0000    1.5000    0.0000 C   0  0
   -1.2990    0.7500    0.0000 C   0  0
   -1.2990   -0.7500    0.0000 C   0  0
    0.0000   -1.5000    0.0000 C   0  0
    2.5973   -1.5031    0.0000 N   0  0
   -0.0031    3.0008    0.0000 N   0  0
    1.2883   -5.2495    0.0000 C   0  0
    1.2935   -3.7495    0.0000 N   0  0
    2.5951   -3.0039    0.0000 C   0  0
    3.8915   -3.7585    0.0000 C   0  0
    3.8864   -5.2585    0.0000 C   0  0
    2.5847   -6.0040    0.0000 N   0  0
   -0.0125   -5.9981    0.0000 N   0  0
   -0.0155   -7.4989    0.0000 N   0  0
   -1.3163   -8.2475    0.0000 C   0  0
   -1.3194   -9.7484    0.0000 C   0  0
    4.9329   -3.1621    0.0000 Cl  0  0
   -1.3039    3.7494    0.0000 C   0  0
   -2.3421    3.1476    0.0000 O   0  0
   -1.3070    5.2502    0.0000 C   0  0
   -2.6078    5.9988    0.0000 C   0  0
   -2.6109    7.4996    0.0000 C   0  0
   -3.9118    8.2481    0.0000 N   0  0
   -3.9142    9.4481    0.0000 C   0  0
   -4.9499    7.6463    0.0000 C   0  0
   -2.6184  -10.4985    0.0000 C   0  0
   -2.6184  -11.9985    0.0000 C   0  0
   -1.3193  -12.7484    0.0000 C   0  0
   -0.0203  -11.9984    0.0000 C   0  0
   -0.0203  -10.4984    0.0000 C   0  0
   -2.3545   -7.6458    0.0000 C   0  0
   -1.3193  -13.9484    0.0000 C   0  0
  1  2  1  0
  2  3  2  0
  3  4  1  0
  4  5  2  0
  5  6  1  0
  1  6  2  0
  1  7  1  0
  3  8  1  0
  9 10  1  0
 10 11  2  0
 11 12  1  0
 12 13  2  0
 13 14  1  0
  9 14  2  0
 15 16  1  0
 17 18  1  0
 16 17  2  0
  9 15  1  0
 12 19  1  0
  7 11  1  0
  8 20  1  0
 20 21  2  0
 20 22  1  0
 22 23  2  0
 23 24  1  0
 24 25  1  0
 25 26  1  0
 25 27  1  0
 18 28  2  0
 28 29  1  0
 29 30  2  0
 30 31  1  0
 31 32  2  0
 32 18  1  0
 17 33  1  0
 30 34  1  0
M  END
> <chembl_id>
CHEMBL3742030

$$$$

  SciTegic12211613092D

 37 41  0  0  0  0            999 V2000
   -5.3425    5.2369    0.0000 N   0  0
   -5.2049    3.7560    0.0000 C   0  0  1  0  0  0
   -6.5563    3.1351    0.0000 C   0  0
   -7.5599    4.2500    0.0000 O   0  0
   -6.8097    5.5489    0.0000 C   0  0
   -3.9067    3.0027    0.0000 C   0  0
   -2.8664    3.6008    0.0000 O   0  0
   -3.9091    1.5019    0.0000 N   0  0
   -2.6111    0.7486    0.0000 C   0  0
   -2.6111   -0.7486    0.0000 C   0  0
   -1.2964   -1.4973    0.0000 C   0  0
   -1.2964    1.4973    0.0000 C   0  0
    0.0000    0.7486    0.0000 C   0  0
    0.0000   -0.7486    0.0000 C   0  0
    1.2964   -1.4973    0.0000 N   0  0
    2.5929   -0.7486    0.0000 C   0  0
    2.5929    0.7486    0.0000 N   0  0
    1.2964    1.4973    0.0000 C   0  0
   -3.9091   -1.5019    0.0000 O   0  0
    1.2995    2.9981    0.0000 N   0  0
    2.6003    3.7467    0.0000 C   0  0
    2.6056    5.2467    0.0000 C   0  0
    3.9072    5.9922    0.0000 C   0  0
    5.2037    5.2377    0.0000 C   0  0
    5.1985    3.7377    0.0000 C   0  0
    3.8969    2.9922    0.0000 C   0  0
   -7.2976    6.6452    0.0000 O   0  0
    6.2356    3.1342    0.0000 Cl  0  0
    6.2450    5.8341    0.0000 F   0  0
   -3.9067   -3.0027    0.0000 C   0  0
   -5.2049   -3.7560    0.0000 C   0  0
   -5.2025   -5.2568    0.0000 N   0  0
   -6.4988   -6.0116    0.0000 C   0  0
   -6.4935   -7.5116    0.0000 C   0  0
   -5.1917   -8.2569    0.0000 C   0  0
   -3.8954   -7.5022    0.0000 C   0  0
   -3.9008   -6.0022    0.0000 C   0  0
  1  2  1  0
  2  3  1  0
  3  4  1  0
  4  5  1  0
  5  1  1  0
  2  6  1  6
  6  7  2  0
  6  8  1  0
  8  9  1  0
  9 10  2  0
 10 11  1  0
 11 14  2  0
 13 12  2  0
 12  9  1  0
 13 14  1  0
 14 15  1  0
 15 16  2  0
 16 17  1  0
 17 18  2  0
 18 13  1  0
 10 19  1  0
 18 20  1  0
 20 21  1  0
 21 22  2  0
 22 23  1  0
 23 24  2  0
 24 25  1  0
 25 26  2  0
 26 21  1  0
  5 27  2  0
 25 28  1  0
 24 29  1  0
 19 30  1  0
 30 31  1  0
 31 32  1  0
 32 33  1  0
 32 37  1  0
 33 34  1  0
 34 35  1  0
 35 36  1  0
 36 37  1  0
M  END
> <chembl_id>
CHEMBL3819120

$$$$

  SciTegic02181312462D

 30 33  0  0  0  0            999 V2000
    1.2202   -5.9968    0.0000 C   0  0
    1.2191   -6.8164    0.0000 C   0  0
    1.9271   -7.2253    0.0000 N   0  0
    2.6368   -6.8159    0.0000 C   0  0
    2.6340   -5.9932    0.0000 C   0  0
    1.9254   -5.5880    0.0000 C   0  0
    3.3401   -5.5820    0.0000 N   0  0
    4.0494   -5.9879    0.0000 C   0  0
    4.7555   -5.5766    0.0000 C   0  0
    4.0525   -6.8051    0.0000 O   0  0
    5.4632   -5.9860    0.0000 C   0  0
    6.1689   -5.5754    0.0000 C   0  0
    6.1663   -4.7573    0.0000 C   0  0
    5.4520   -4.3516    0.0000 C   0  0
    4.7493   -4.7645    0.0000 C   0  0
    5.4502   -3.5363    0.0000 C   0  0
    6.1565   -3.1231    0.0000 C   0  0
    6.1509   -2.3075    0.0000 C   0  0
    5.4397   -1.9028    0.0000 N   0  0
    4.7327   -2.3266    0.0000 C   0  0
    4.7417   -3.1357    0.0000 C   0  0
    5.4643   -6.8031    0.0000 O   0  0
    6.1725   -7.2108    0.0000 C   0  0
    6.8797   -6.8013    0.0000 C   0  0
    7.5844   -7.2097    0.0000 C   0  0
    8.2911   -6.8009    0.0000 C   0  0
    8.2905   -5.9828    0.0000 C   0  0
    7.5773   -5.5753    0.0000 C   0  0
    6.8735   -5.9865    0.0000 C   0  0
    6.8559   -1.8943    0.0000 F   0  0
  1  2  2  0
  2  3  1  0
  3  4  2  0
  4  5  1  0
  5  6  2  0
  6  1  1  0
  5  7  1  0
  7  8  1  0
  8  9  1  0
  8 10  2  0
  9 11  2  0
 11 12  1  0
 12 13  2  0
 13 14  1  0
 14 15  2  0
 15  9  1  0
 16 17  2  0
 17 18  1  0
 18 19  2  0
 19 20  1  0
 20 21  2  0
 21 16  1  0
 14 16  1  0
 11 22  1  0
 22 23  1  0
 23 24  1  0
 24 25  2  0
 25 26  1  0
 26 27  2  0
 27 28  1  0
 28 29  2  0
 29 24  1  0
 18 30  1  0
M  END
> <chembl_id>
CHEMBL2204495

$$$$

  SciTegic12131615502D

 40 45  0  0  0  0            999 V2000
    5.0291    0.0249    0.0000 C   0  0
   -3.1564    2.0162    0.0000 C   0  0
   -6.7538   -0.6829    0.0000 C   0  0
   -2.9759    0.5271    0.0000 C   0  0
   -7.1118    2.3057    0.0000 C   0  0
   -1.9571    2.9171    0.0000 C   0  0
  -11.7264   -2.7969    0.0000 C   0  0
    2.1839    1.1572    0.0000 C   0  0
   -9.3278   -0.9987    0.0000 C   0  0
    2.5893   -0.5726    0.0000 C   0  0
    3.5602    0.5726    0.0000 C   0  0
    6.1246    2.2656    0.0000 C   0  0
    3.7345    0.0000    0.0000 C   0  0
   -0.3966    0.8398    0.0000 C   0  0
   -7.5810   -4.5589    0.0000 O   0  0
   -4.1777   -0.3718    0.0000 N   0  0
   -7.7669   -3.0696    0.0000 C   0  0
  -10.3457   -3.3853    0.0000 O   0  0
   -6.1986   -5.1434    0.0000 C   0  0
    3.7345    1.5436    0.0000 C   0  0
   -1.5960   -0.0611    0.0000 C   0  0
    6.1246    0.5726    0.0000 C   0  0
  -15.2674   -3.8295    0.0000 C   0  0
   -8.1321   -0.0978    0.0000 C   0  0
    0.9852    0.2541    0.0000 N   0  0
  -14.3075   -3.1093    0.0000 O   0  0
    5.2034   -0.5726    0.0000 C   0  0
   -6.0127   -6.6326    0.0000 C   0  0
   -8.3146    1.3881    0.0000 N   0  0
   -5.7336    1.7207    0.0000 N   0  0
   -0.5772    2.3289    0.0000 C   0  0
   -6.5712   -2.1688    0.0000 C   0  0
  -12.9268   -3.6977    0.0000 C   0  0
   -4.6303   -7.2171    0.0000 O   0  0
   -5.5575    0.2187    0.0000 C   0  0
   -4.4816   -8.4078    0.0000 C   0  0
    3.5602    2.2656    0.0000 C   0  0
   -9.1452   -2.4846    0.0000 C   0  0
    4.8300    2.8133    0.0000 C   0  0
    2.0374    2.3482    0.0000 O   0  0
 33 26  1  0
 16 35  1  0
 11 10  1  0
 37 11  1  0
 21 14  2  0
 39 37  1  0
 19 28  1  0
  5 30  2  0
 18  7  1  0
 13 20  1  0
 38 18  1  0
 17 15  1  0
 26 23  1  0
  7 33  1  0
 17 38  1  0
 38  9  2  0
  4 21  1  0
 22 12  1  0
 13 10  1  0
  3 32  1  0
 20 39  1  0
 30 35  1  0
 29  5  1  0
 34 36  1  0
 12 39  1  0
 35  3  2  0
 28 34  1  0
 27 22  1  0
  6 31  2  0
 32 17  2  0
  9 24  1  0
  1 11  1  0
 15 19  1  0
  3 24  1  0
 14 25  1  0
  2  4  2  0
 22  1  1  0
  6  2  1  0
 29 24  2  0
  8 11  1  0
 25  8  1  0
 27 13  1  0
  4 16  1  0
 14 31  1  0
  8 40  2  0
M  END
> <chembl_id>
CHEMBL3764603

$$$$

  SciTegic05221516342D

 27 30  0  0  0  0            999 V2000
    8.4877   -9.2582    0.0000 C   0  0
    9.3049   -9.2582    0.0000 C   0  0
    9.7135   -9.9673    0.0000 C   0  0
    9.3049  -10.6763    0.0000 C   0  0
    8.4877  -10.6763    0.0000 C   0  0
    8.0791   -9.9673    0.0000 N   0  0
   10.5959   -8.9861    0.0000 N   0  0
   10.5119   -9.7965    0.0000 C   0  0
    9.8486   -8.6517    0.0000 N   0  0
    8.0791  -11.3854    0.0000 N   0  0
    6.0362  -10.6763    0.0000 C   0  0
    6.8533  -10.6763    0.0000 N   0  0
    7.2619  -11.3854    0.0000 C   0  0
    6.8533  -12.0904    0.0000 C   0  0
    6.0362  -12.0904    0.0000 C   0  0
    5.6276  -11.3854    0.0000 N   0  0
    5.6276   -9.9673    0.0000 N   0  0
    4.8104   -9.9673    0.0000 C   0  0
    4.4018   -9.2582    0.0000 C   0  0
    4.8104   -8.5532    0.0000 C   0  0
    5.6276   -8.5532    0.0000 C   0  0
    6.0362   -9.2582    0.0000 C   0  0
    4.4018   -7.8441    0.0000 O   0  0
    3.5846   -7.8441    0.0000 C   0  0
   11.1199  -10.3425    0.0000 C   0  0
   10.9511  -11.1421    0.0000 C   0  0
   11.8968  -10.0889    0.0000 C   0  0
  1  2  1  0
  2  3  2  0
  3  4  1  0
  4  5  2  0
  5  6  1  0
  1  6  2  0
  7  8  2  0
  7  9  1  0
  2  9  1  0
  3  8  1  0
  5 10  1  0
 11 12  1  0
 12 13  2  0
 13 14  1  0
 14 15  2  0
 15 16  1  0
 11 16  2  0
 17 18  1  0
 18 19  1  0
 19 20  1  0
 20 21  1  0
 21 22  1  0
 17 22  1  0
 23 24  1  0
 20 23  1  0
 11 17  1  0
 10 13  1  0
  8 25  1  0
 25 26  1  0
 25 27  1  0
M  END
> <chembl_id>
CHEMBL3354192

$$$$

  SciTegic01181116592D

 41 47  0  0  0  0            999 V2000
   12.3274  -14.6976    0.0000 C   0  0  2  0  0  0
   11.7759  -15.3099    0.0000 C   0  0
   12.0277  -16.0917    0.0000 C   0  0
   12.8341  -16.2676    0.0000 C   0  0  2  0  0  0
   13.3883  -15.6552    0.0000 C   0  0
   13.1362  -14.8669    0.0000 C   0  0
   13.0859  -17.0532    0.0000 N   0  0
   12.5330  -17.6621    0.0000 C   0  0
   12.7819  -18.4449    0.0000 C   0  0
   13.5876  -18.6238    0.0000 N   0  0
   14.1442  -18.0135    0.0000 C   0  0
   13.8950  -17.2243    0.0000 C   0  0
   13.8365  -19.4104    0.0000 C   0  0
   12.0713  -13.9133    0.0000 N   0  0
    9.8611  -12.8375    0.0000 N   0  0
    9.8599  -13.6607    0.0000 C   0  0
   10.5789  -14.0735    0.0000 N   0  0
   10.5771  -12.4247    0.0000 C   0  0
   11.2883  -12.8338    0.0000 C   0  0
   11.2890  -13.6607    0.0000 C   0  0
   12.5571  -13.2502    0.0000 N   0  0
   12.0734  -12.5801    0.0000 C   0  0
   12.4841  -11.8652    0.0000 C   0  0
   13.3099  -11.8671    0.0000 C   0  0
   13.7208  -11.1526    0.0000 C   0  0
   13.3066  -10.4380    0.0000 C   0  0
   12.4774  -10.4425    0.0000 C   0  0
   12.0703  -11.1576    0.0000 C   0  0
   13.7166   -9.7221    0.0000 N   0  0
   14.5416   -9.7192    0.0000 C   0  0
   15.0284  -10.3796    0.0000 O   0  0
   15.0237   -9.0448    0.0000 N   0  0
   15.8092   -9.2968    0.0000 C   0  0
   15.8099  -10.1190    0.0000 C   0  0
   16.5212  -10.5277    0.0000 C   0  0
   17.2323  -10.1153    0.0000 C   0  0
   17.2275   -9.2900    0.0000 C   0  0
   16.5157   -8.8850    0.0000 C   0  0
   16.5229  -11.3527    0.0000 Cl  0  0
   10.5767  -11.5997    0.0000 N   0  0
   12.0608   -9.7304    0.0000 C   0  0
 21 22  2  0
 22 19  1  0
  8  9  1  0
 22 23  1  0
  9 10  1  0
 23 24  2  0
 10 11  1  0
 24 25  1  0
 11 12  1  0
 25 26  2  0
  5  6  1  0
 26 27  1  0
 10 13  1  0
 27 28  2  0
 28 23  1  0
  1  2  1  0
 26 29  1  0
  1 14  1  1
 29 30  1  0
 30 31  1  0
  4  7  1  6
  7  8  1  0
 31 34  1  0
 33 32  1  0
 32 30  2  0
 15 16  2  0
 33 34  2  0
 16 17  1  0
 34 35  1  0
 17 20  2  0
 35 36  2  0
  1  6  1  0
 36 37  1  0
 19 18  2  0
 37 38  2  0
 38 33  1  0
 18 15  1  0
 35 39  1  0
 19 20  1  0
 18 40  1  0
  2  3  1  0
  3  4  1  0
  4  5  1  0
  7 12  1  0
 20 14  1  0
 14 21  1  0
 27 41  1  0
M  END
> <chembl_id>
CHEMBL1256434

$$$$

  SciTegic12161615052D

 28 31  0  0  0  0            999 V2000
    4.9397   -1.2009    0.0000 C   0  0
    4.0896    0.0290    0.0000 C   0  0
    4.7275    1.3885    0.0000 C   0  0
    6.2225    1.5110    0.0000 C   0  0
    7.0761    0.2776    0.0000 C   0  0
    6.4347   -1.0783    0.0000 N   0  0
    4.4262   -2.2855    0.0000 O   0  0
    3.8744    2.6233    0.0000 N   0  0
    4.5163    3.9799    0.0000 C   0  0
    3.6655    5.2153    0.0000 C   0  0
    4.3099    6.5698    0.0000 C   0  0
    5.8051    6.6891    0.0000 C   0  0
    6.6560    5.4538    0.0000 C   0  0
    6.0117    4.0992    0.0000 C   0  0
    2.1692    5.0991    0.0000 O   0  0
    1.4899    6.0883    0.0000 C   0  0
    2.5889    0.0182    0.0000 C   0  0
    1.7138    1.2033    0.0000 N   0  0
    1.7138   -1.2033    0.0000 N   0  0
    0.2917   -0.7475    0.0000 C   0  0
    0.2917    0.7475    0.0000 C   0  0
   -1.0028    1.5132    0.0000 C   0  0
   -2.3155    0.7475    0.0000 C   0  0
   -2.3155   -0.7475    0.0000 C   0  0
   -1.0028   -1.5132    0.0000 C   0  0
   -0.9971   -3.0138    0.0000 C   0  0
   -2.0337   -3.6184    0.0000 C   0  0
    0.0446   -3.6095    0.0000 C   0  0
  1  2  1  0
  2  3  2  0
  3  4  1  0
  4  5  2  0
  5  6  1  0
  1  6  1  0
  1  7  2  0
  3  8  1  0
  8  9  1  0
  9 10  2  0
 10 11  1  0
 11 12  2  0
 12 13  1  0
 13 14  2  0
 14  9  1  0
 10 15  1  0
 15 16  1  0
 17 18  1  0
 18 21  1  0
 20 19  1  0
 19 17  2  0
  2 17  1  0
 20 21  2  0
 21 22  1  0
 22 23  2  0
 23 24  1  0
 24 25  2  0
 25 20  1  0
 25 26  1  0
 26 27  1  0
 26 28  1  0
M  END
> <chembl_id>
CHEMBL3780841

$$$$

  SciTegic12201611502D

 31 34  0  0  0  0            999 V2000
   -2.1332   -2.2973    0.0000 N   0  0
   -3.4277   -1.5498    0.0000 C   0  0
   -3.4277    0.0000    0.0000 N   0  0
   -2.1332    0.6928    0.0000 C   0  0
   -0.8205    0.0000    0.0000 C   0  0
    0.4558    0.6928    0.0000 C   0  0
    1.7503    0.0000    0.0000 C   0  0
    1.7503   -1.5498    0.0000 C   0  0
    0.4558   -2.2973    0.0000 C   0  0
   -0.8205   -1.5498    0.0000 C   0  0
    0.4558    2.1879    0.0000 O   0  0
    3.0631    0.6928    0.0000 O   0  0
    3.0631    2.1879    0.0000 C   0  0
    1.7503    2.9537    0.0000 C   0  0
   -2.1454    2.1947    0.0000 N   0  0
    3.0410   -2.3153    0.0000 O   0  0
    3.0239   -3.8160    0.0000 C   0  0
    4.3146   -4.5820    0.0000 C   0  0
    4.2976   -6.0827    0.0000 O   0  0
    5.3296   -6.6951    0.0000 C   0  0
   -3.4508    2.9353    0.0000 C   0  0
   -3.4653    4.4352    0.0000 C   0  0
   -4.7714    5.1728    0.0000 C   0  0
   -6.0632    4.4104    0.0000 C   0  0
   -6.0489    2.9104    0.0000 C   0  0
   -4.7427    2.1729    0.0000 C   0  0
   -4.7827    6.6736    0.0000 N   0  3
   -3.7484    7.2820    0.0000 O   0  0
   -5.8266    7.2654    0.0000 O   0  5
   -7.3716    5.1456    0.0000 O   0  0
   -8.4042    4.5342    0.0000 C   0  0
  1  2  1  0
  2  3  2  0
  3  4  1  0
  4  5  2  0
  5  6  1  0
  6  7  2  0
  7  8  1  0
  8  9  2  0
  9 10  1  0
  1 10  2  0
  5 10  1  0
 12 13  1  0
 13 14  1  0
 11 14  1  0
  6 11  1  0
  7 12  1  0
  4 15  1  0
 17 18  1  0
 16 17  1  0
 19 20  1  0
 18 19  1  0
  8 16  1  0
 21 22  1  0
 22 23  2  0
 23 24  1  0
 24 25  2  0
 25 26  1  0
 21 26  2  0
 27 28  2  0
 27 29  1  0
 23 27  1  0
 30 31  1  0
 24 30  1  0
 15 21  1  0
M  CHG  2  27   1  29  -1
M  END
> <chembl_id>
CHEMBL3805491

$$$$

  SciTegic08171211402D

 35 38  0  0  0  0            999 V2000
   10.8001  -14.6682    0.0000 N   0  0
   11.0519  -13.8813    0.0000 C   0  0
   10.4918  -13.2693    0.0000 N   0  0
    9.6882  -13.4476    0.0000 C   0  0
    9.9943  -14.8432    0.0000 C   0  0
    9.4383  -14.2297    0.0000 C   0  0
    8.6829  -14.5689    0.0000 N   0  0
    8.7721  -15.3920    0.0000 C   0  0
    9.5825  -15.5616    0.0000 C   0  0
    9.1326  -12.8389    0.0000 N   0  0
    9.3818  -12.0535    0.0000 C   0  0
   10.1864  -11.8809    0.0000 C   0  0
   10.4357  -11.0962    0.0000 C   0  0
    9.8798  -10.4867    0.0000 C   0  0
    9.0714  -10.6671    0.0000 C   0  0
    8.8258  -11.4514    0.0000 C   0  0
   11.2407  -10.9197    0.0000 Cl  0  0
   10.1280   -9.7009    0.0000 O   0  0
    7.9680  -14.1591    0.0000 C   0  0
   10.9327   -9.5229    0.0000 C   0  0
   11.4870  -10.1327    0.0000 C   0  0
   12.2910   -9.9553    0.0000 C   0  0
   12.5399   -9.1687    0.0000 C   0  0
   11.9786   -8.5596    0.0000 C   0  0
   11.1767   -8.7402    0.0000 C   0  0
   12.2240   -7.7730    0.0000 C   0  0
   13.0280   -7.5921    0.0000 F   0  0
   11.6655   -7.1670    0.0000 F   0  0
   12.4672   -6.9850    0.0000 F   0  0
    7.2556  -14.5733    0.0000 C   0  0
    6.5407  -14.1635    0.0000 S   0  3
    5.8283  -14.5778    0.0000 C   0  0
    5.1133  -14.1681    0.0000 C   0  0
    4.4009  -14.5823    0.0000 O   0  0
    6.5380  -13.3395    0.0000 O   0  5
  6  7  1  0
 13 17  1  0
  7  8  1  0
 14 18  1  0
  8  9  2  0
  7 19  1  0
  9  5  1  0
 18 20  1  0
  4  6  1  0
 20 21  2  0
  4 10  1  0
 21 22  1  0
  5  6  2  0
 22 23  2  0
 10 11  1  0
 23 24  1  0
  1  2  2  0
 24 25  2  0
 25 20  1  0
 11 12  2  0
 24 26  1  0
  5  1  1  0
 26 27  1  0
 12 13  1  0
 26 28  1  0
  2  3  1  0
 26 29  1  0
 13 14  2  0
 19 30  1  0
 30 31  1  0
 14 15  1  0
 31 32  1  0
  3  4  2  0
 32 33  1  0
 15 16  2  0
 33 34  1  0
 16 11  1  0
 31 35  1  0
M  CHG  2  31   1  35  -1
M  END
> <chembl_id>
CHEMBL1923015

$$$$

  SciTegic12121614122D

 39 43  0  0  0  0            999 V2000
   -1.2913    7.5063    0.0000 C   0  0
   -2.5882    8.2616    0.0000 C   0  0
   -0.2500    8.1028    0.0000 O   0  0
   -1.2959    6.0055    0.0000 N   0  0
    0.0011    5.2503    0.0000 C   0  0
   -0.0014    3.7503    0.0000 C   0  0
    1.2964    2.9980    0.0000 C   0  0
    2.5967    3.7460    0.0000 C   0  0
    2.5992    5.2460    0.0000 C   0  0
    1.3014    5.9981    0.0000 C   0  0
   -2.6111    0.7486    0.0000 C   0  0
   -1.2964    1.4973    0.0000 N   0  0
    0.0000    0.7486    0.0000 C   0  0
    0.0000   -0.7486    0.0000 C   0  0
   -1.2964   -1.4973    0.0000 C   0  0
   -2.6111   -0.7486    0.0000 N   0  0
    1.2964   -1.4973    0.0000 C   0  0
    2.5929   -0.7486    0.0000 C   0  0
    2.5929    0.7486    0.0000 C   0  0
    1.2964    1.4973    0.0000 N   0  0
    3.6321    1.3486    0.0000 O   0  0
    3.6321   -1.3486    0.0000 C   0  0
   -3.9122    1.4966    0.0000 N   0  0
   -5.2109    0.7445    0.0000 C   0  0
   -6.5125    1.4901    0.0000 C   0  0
   -7.8091    0.7359    0.0000 C   0  0
   -7.8042   -0.7641    0.0000 C   0  0
   -6.5027   -1.5098    0.0000 C   0  0
   -5.2061   -0.7556    0.0000 C   0  0
   -9.1014   -1.5188    0.0000 N   0  0
  -10.4041   -0.7752    0.0000 C   0  0
  -11.6995   -1.5315    0.0000 C   0  0
  -11.6922   -3.0315    0.0000 N   0  0
  -10.3895   -3.7751    0.0000 C   0  0
   -9.0942   -3.0188    0.0000 C   0  0
  -12.7285   -3.6365    0.0000 C   0  0
   -6.5206    2.9910    0.0000 O   0  0
   -7.5627    3.5860    0.0000 C   0  0
   -2.5845    9.4615    0.0000 C   0  0
  1  2  1  0
  1  3  2  0
  1  4  1  0
  5  6  1  0
  6  7  2  0
  7  8  1  0
  8  9  2  0
  9 10  1  0
  5 10  2  0
 11 12  1  0
 12 13  2  0
 13 14  1  0
 14 15  2  0
 15 16  1  0
 11 16  2  0
 17 18  2  0
 18 19  1  0
 19 20  1  0
 13 20  1  0
 14 17  1  0
 19 21  2  0
 18 22  1  0
 24 25  1  0
 25 26  2  0
 26 27  1  0
 27 28  2  0
 28 29  1  0
 24 29  2  0
 30 31  1  0
 31 32  1  0
 32 33  1  0
 33 34  1  0
 34 35  1  0
 30 35  1  0
 33 36  1  0
 27 30  1  0
 37 38  1  0
 25 37  1  0
 23 24  1  0
 11 23  1  0
  7 20  1  0
  4  5  1  0
  2 39  2  0
M  END
> <chembl_id>
CHEMBL3752363

$$$$

  SciTegic12091614152D

 31 33  0  0  0  0            999 V2000
    1.2990   -0.7500    0.0000 C   0  0
    1.2990    0.7500    0.0000 C   0  0
    0.0000    1.5000    0.0000 C   0  0
   -1.2990    0.7500    0.0000 C   0  0
   -1.2990   -0.7500    0.0000 C   0  0
    0.0000   -1.5000    0.0000 C   0  0
    2.5973   -1.5031    0.0000 N   0  0
   -0.0031    3.0008    0.0000 N   0  0
    1.2883   -5.2495    0.0000 C   0  0
    1.2935   -3.7495    0.0000 N   0  0
    2.5951   -3.0039    0.0000 C   0  0
    3.8915   -3.7585    0.0000 C   0  0
    3.8864   -5.2585    0.0000 C   0  0
    2.5847   -6.0040    0.0000 N   0  0
   -0.0125   -5.9981    0.0000 N   0  0
   -0.0155   -7.4989    0.0000 N   0  0
   -1.3163   -8.2475    0.0000 C   0  0
   -1.3194   -9.7484    0.0000 C   0  0
   -0.0203  -10.4984    0.0000 C   0  0
   -0.0203  -11.9984    0.0000 C   0  0
   -1.3193  -12.7484    0.0000 C   0  0
   -2.6184  -11.9985    0.0000 C   0  0
   -2.6184  -10.4985    0.0000 C   0  0
   -1.3193  -13.9484    0.0000 F   0  0
    4.9329   -3.1621    0.0000 Cl  0  0
   -1.3039    3.7494    0.0000 C   0  0
   -2.3421    3.1476    0.0000 O   0  0
   -1.3070    5.2502    0.0000 C   0  0
   -2.3471    5.8487    0.0000 C   0  0
   -2.3545   -7.6458    0.0000 C   0  0
   -3.6577   -9.8985    0.0000 F   0  0
  1  2  1  0
  2  3  2  0
  3  4  1  0
  4  5  2  0
  5  6  1  0
  1  6  2  0
  1  7  1  0
  3  8  1  0
  9 10  1  0
 10 11  2  0
 11 12  1  0
 12 13  2  0
 13 14  1  0
  9 14  2  0
 15 16  1  0
 17 18  1  0
 18 19  1  0
 19 20  2  0
 20 21  1  0
 21 22  2  0
 22 23  1  0
 18 23  2  0
 21 24  1  0
 16 17  2  0
  9 15  1  0
 12 25  1  0
  7 11  1  0
  8 26  1  0
 26 27  2  0
 26 28  1  0
 28 29  2  0
 17 30  1  0
 23 31  1  0
M  END
> <chembl_id>
CHEMBL3740257

$$$$

  SciTegic12201616152D

 23 25  0  0  0  0            999 V2000
    3.8942   -1.4964    0.0000 N   0  0
    5.1929   -0.7441    0.0000 C   0  0
    6.2333   -1.3420    0.0000 O   0  0
    5.1908    0.4559    0.0000 N   0  0
   -1.2964    1.4973    0.0000 N   0  0
   -2.6111    0.7486    0.0000 C   0  0
   -2.6111   -0.7486    0.0000 N   0  0
   -1.2964   -1.4973    0.0000 C   0  0
    0.0000   -0.7486    0.0000 C   0  0
    1.2964   -1.4973    0.0000 C   0  0
    2.5929   -0.7486    0.0000 C   0  0
    2.5929    0.7486    0.0000 C   0  0
    1.2964    1.4973    0.0000 C   0  0
    0.0000    0.7486    0.0000 C   0  0
   -1.2907   -2.9981    0.0000 N   0  0
   -2.5870   -3.7544    0.0000 C   0  0
   -2.5835   -5.2544    0.0000 C   0  0
   -3.8807   -6.0076    0.0000 C   0  0
   -5.1815   -5.2608    0.0000 C   0  0
   -5.1852   -3.7608    0.0000 C   0  0
   -3.8880   -3.0076    0.0000 C   0  0
   -3.8770   -7.5084    0.0000 C   0  0
   -3.8741   -8.7084    0.0000 C   0  0
  1  2  1  0
  2  3  2  0
  2  4  1  0
  5  6  1  0
  6  7  2  0
  7  8  1  0
  8  9  2  0
  9 10  1  0
 10 11  2  0
 11 12  1  0
 12 13  2  0
 13 14  1  0
  5 14  2  0
  9 14  1  0
 16 17  1  0
 17 18  2  0
 18 19  1  0
 19 20  2  0
 20 21  1  0
 16 21  2  0
 22 23  3  0
 18 22  1  0
 15 16  1  0
  8 15  1  0
  1 11  1  0
M  END
> <chembl_id>
CHEMBL3814447

$$$$

  SciTegic12091614152D

 30 32  0  0  0  0            999 V2000
    1.2990   -0.7500    0.0000 C   0  0
    1.2990    0.7500    0.0000 C   0  0
    0.0000    1.5000    0.0000 C   0  0
   -1.2990    0.7500    0.0000 C   0  0
   -1.2990   -0.7500    0.0000 C   0  0
    0.0000   -1.5000    0.0000 C   0  0
    2.5973   -1.5031    0.0000 N   0  0
   -0.0031    3.0008    0.0000 N   0  0
    1.2883   -5.2495    0.0000 C   0  0
    1.2935   -3.7495    0.0000 N   0  0
    2.5951   -3.0039    0.0000 C   0  0
    3.8915   -3.7585    0.0000 C   0  0
    3.8864   -5.2585    0.0000 C   0  0
    2.5847   -6.0040    0.0000 N   0  0
   -0.0125   -5.9981    0.0000 N   0  0
   -0.0155   -7.4989    0.0000 N   0  0
   -1.3163   -8.2475    0.0000 C   0  0
   -1.3194   -9.7484    0.0000 C   0  0
   -0.0203  -10.4984    0.0000 C   0  0
   -0.0203  -11.9984    0.0000 C   0  0
   -1.3193  -12.7484    0.0000 C   0  0
   -2.6184  -11.9985    0.0000 C   0  0
   -2.6184  -10.4985    0.0000 C   0  0
    4.9329   -3.1621    0.0000 Cl  0  0
   -1.3039    3.7494    0.0000 C   0  0
   -2.3421    3.1476    0.0000 O   0  0
   -1.3070    5.2502    0.0000 C   0  0
   -2.3471    5.8487    0.0000 C   0  0
   -3.6577   -9.8985    0.0000 F   0  0
   -1.3193  -13.9484    0.0000 F   0  0
  1  2  1  0
  2  3  2  0
  3  4  1  0
  4  5  2  0
  5  6  1  0
  1  6  2  0
  1  7  1  0
  3  8  1  0
  9 10  1  0
 10 11  2  0
 11 12  1  0
 12 13  2  0
 13 14  1  0
  9 14  2  0
 15 16  1  0
 17 18  1  0
 18 19  1  0
 19 20  2  0
 20 21  1  0
 21 22  2  0
 22 23  1  0
 18 23  2  0
 16 17  2  0
  9 15  1  0
 12 24  1  0
  7 11  1  0
  8 25  1  0
 25 26  2  0
 25 27  1  0
 27 28  2  0
 23 29  1  0
 21 30  1  0
M  END
> <chembl_id>
CHEMBL3740614

$$$$

  SciTegic12161615052D

 31 34  0  0  0  0            999 V2000
    1.2990   -0.7500    0.0000 C   0  0
    1.2990    0.7500    0.0000 C   0  0
    0.0000    1.5000    0.0000 C   0  0
   -1.2990    0.7500    0.0000 C   0  0
   -1.2990   -0.7500    0.0000 C   0  0
    0.0000   -1.5000    0.0000 N   0  0
    2.5972    1.5031    0.0000 C   0  0
    3.6375    0.9049    0.0000 O   0  0
    2.5951    3.0039    0.0000 N   0  0
    2.3383   -1.3500    0.0000 O   0  0
    3.8933    3.7570    0.0000 C   0  0
    3.8933    5.2571    0.0000 C   0  0
    5.1924    6.0071    0.0000 C   0  0
    6.4914    5.2571    0.0000 C   0  0
    6.4915    3.7571    0.0000 C   0  0
    5.1925    3.0071    0.0000 C   0  0
    7.7911    6.0075    0.0000 N   0  0
    7.7935    7.5076    0.0000 C   0  0
    9.0937    8.2556    0.0000 C   0  0
   10.3916    7.5036    0.0000 N   0  0
   10.3893    6.0036    0.0000 C   0  0
    9.0891    5.2556    0.0000 C   0  0
   11.4318    8.1019    0.0000 C   0  0
   -0.0031    3.0008    0.0000 N   0  0
   -1.3039    3.7494    0.0000 C   0  0
   -1.3092    5.2494    0.0000 C   0  0
   -2.6108    5.9949    0.0000 C   0  0
   -3.9073    5.2404    0.0000 C   0  0
   -3.9021    3.7404    0.0000 C   0  0
   -2.6005    2.9949    0.0000 C   0  0
   -4.9486    5.8368    0.0000 Cl  0  0
  1  2  1  0
  2  3  2  0
  3  4  1  0
  4  5  2  0
  5  6  1  0
  1  6  1  0
  7  8  2  0
  7  9  1  0
  2  7  1  0
  1 10  2  0
 11 12  1  0
 12 13  2  0
 13 14  1  0
 14 15  2  0
 15 16  1  0
 11 16  2  0
 17 18  1  0
 18 19  1  0
 19 20  1  0
 20 21  1  0
 21 22  1  0
 17 22  1  0
 20 23  1  0
 14 17  1  0
  9 11  1  0
  3 24  1  0
 24 25  1  0
 25 26  2  0
 26 27  1  0
 27 28  2  0
 28 29  1  0
 29 30  2  0
 30 25  1  0
 28 31  1  0
M  END
> <chembl_id>
CHEMBL3781338

$$$$

  SciTegic04201616412D

 32 35  0  0  0  0            999 V2000
    0.0000    0.7486    0.0000 C   0  0
   -1.2964    1.4973    0.0000 C   0  0
    0.0000   -0.7486    0.0000 C   0  0
    1.2964    1.4973    0.0000 C   0  0
   -2.6111    0.7486    0.0000 N   0  0
    1.2964   -1.4973    0.0000 C   0  0
   -1.2907    2.9981    0.0000 N   0  0
    2.5929    0.7486    0.0000 C   0  0
    2.5929   -0.7486    0.0000 C   0  0
   -5.1852    3.7608    0.0000 C   0  0
   -1.2964   -1.4973    0.0000 N   0  0
   -3.8880    3.0076    0.0000 C   0  0
   -2.6111   -0.7486    0.0000 C   0  0
   -2.5870    3.7544    0.0000 C   0  0
   -5.1815    5.2608    0.0000 C   0  0
   -3.8807    6.0076    0.0000 C   0  0
   -2.5835    5.2544    0.0000 C   0  0
    3.8911   -1.5017    0.0000 O   0  0
   -3.8777    7.2076    0.0000 Cl  0  0
   -1.5428    5.8519    0.0000 F   0  0
    3.8894   -2.7017    0.0000 C   0  0
    3.8911    1.5017    0.0000 O   0  0
    3.8890    3.0026    0.0000 C   0  0
    5.1872    3.7556    0.0000 N   0  0
    2.8487    3.6008    0.0000 O   0  0
    5.3250    5.2365    0.0000 C   0  0
    6.7923    5.5484    0.0000 C   0  0  1  0  0  0
    7.5423    4.2493    0.0000 C   0  0
    6.5386    3.1346    0.0000 C   0  0
    7.4045    6.9158    0.0000 N   0  0
    8.5981    7.0395    0.0000 C   0  0
    6.7009    7.8879    0.0000 C   0  0
  2  1  1  0
  3  1  1  0
  4  1  2  0
  5  2  2  0
  6  3  2  0
  7  2  1  0
  8  4  1  0
  9  8  2  0
 10 12  1  0
 11  3  1  0
 12 14  2  0
 13 11  2  0
 14  7  1  0
 15 16  1  0
 16 17  2  0
 17 14  1  0
 18  9  1  0
  6  9  1  0
 13  5  1  0
 10 15  2  0
 16 19  1  0
 17 20  1  0
 18 21  1  0
  8 22  1  0
 22 23  1  0
 23 24  1  0
 23 25  2  0
 24 26  1  0
 26 27  1  0
 27 28  1  0
 28 29  1  0
 29 24  1  0
 27 30  1  6
 30 31  1  0
 30 32  1  0
M  END
> <chembl_id>
CHEMBL3623284

$$$$

  SciTegic04191617032D

 27 30  0  0  0  0            999 V2000
   -2.6111    0.7486    0.0000 C   0  0
   -2.6111   -0.7486    0.0000 C   0  0
   -1.2964   -1.4973    0.0000 C   0  0
   -1.2964    1.4973    0.0000 C   0  0
    0.0000    0.7486    0.0000 C   0  0
    0.0000   -0.7486    0.0000 C   0  0
    1.2964   -1.4973    0.0000 N   0  0
    2.5929   -0.7486    0.0000 C   0  0
    2.5929    0.7486    0.0000 N   0  0
    1.2964    1.4973    0.0000 C   0  0
    1.2995    2.9981    0.0000 N   0  0
    2.6003    3.7467    0.0000 C   0  0
    2.7434    5.2271    0.0000 C   0  0
    4.2117    5.5338    0.0000 C   0  0
    4.9571    4.2322    0.0000 N   0  0
    3.9496    3.1210    0.0000 N   0  0
    3.8926   -1.4990    0.0000 C   0  0
    5.1929   -0.7510    0.0000 C   0  0
    6.4908   -1.5029    0.0000 C   0  0
    6.4885   -3.0029    0.0000 C   0  0
    5.1883   -3.7510    0.0000 C   0  0
    3.8904   -2.9990    0.0000 C   0  0
    5.1983    0.7498    0.0000 N   0  0
    6.5003    1.4964    0.0000 C   0  0
    6.5057    2.9972    0.0000 C   0  0
    7.5375    0.8930    0.0000 O   0  0
    7.5467    3.5941    0.0000 C   0  0
  1  2  2  0
  2  3  1  0
  3  6  2  0
  5  4  2  0
  4  1  1  0
  5  6  1  0
  6  7  1  0
  7  8  2  0
  8  9  1  0
  9 10  2  0
 10  5  1  0
 10 11  1  0
 11 12  1  0
 12 13  1  0
 13 14  2  0
 14 15  1  0
 15 16  1  0
 16 12  2  0
  8 17  1  0
 17 18  2  0
 18 19  1  0
 19 20  2  0
 20 21  1  0
 21 22  2  0
 22 17  1  0
 18 23  1  0
 23 24  1  0
 24 25  1  0
 24 26  2  0
 25 27  1  0
M  END
> <chembl_id>
CHEMBL3604914

$$$$

  SciTegic01181116592D

 42 48  0  0  0  0            999 V2000
    4.5291   -0.9405    0.0000 C   0  0  2  0  0  0
    3.9799   -1.5516    0.0000 C   0  0
    4.2324   -2.3327    0.0000 C   0  0
    5.0387   -2.5076    0.0000 C   0  0  1  0  0  0
    5.5919   -1.8948    0.0000 C   0  0
    5.3389   -1.1073    0.0000 C   0  0
    4.2714   -0.1572    0.0000 N   0  0
    8.5824    3.2663    0.0000 C   0  0
    9.2985    3.6794    0.0000 C   0  0
    9.2956    4.5105    0.0000 C   0  0
    8.5806    4.9261    0.0000 C   0  0
   10.0081    4.9283    0.0000 C   0  0
    7.8680    3.6789    0.0000 C   0  0
    7.8693    4.5126    0.0000 C   0  0
    7.0817    4.7717    0.0000 N   0  0
    6.5937    4.1003    0.0000 C   0  0
    7.0797    3.4242    0.0000 O   0  0
    5.7692    4.0991    0.0000 N   0  0
    5.3559    3.3828    0.0000 C   0  0
    4.5331    3.3873    0.0000 C   0  0
    4.1198    2.6747    0.0000 C   0  0
    4.5311    1.9590    0.0000 C   0  0
    5.3599    1.9604    0.0000 C   0  0
    5.7694    2.6737    0.0000 C   0  0
    4.1234    4.1092    0.0000 F   0  0
    4.2776    1.1747    0.0000 C   0  0
    4.7573    0.5110    0.0000 C   0  0
    3.4889    0.0974    0.0000 C   0  0
    3.4907    0.9212    0.0000 C   0  0
    2.7794    1.3328    0.0000 C   0  0
    2.0658    0.9218    0.0000 N   0  0
    2.0680    0.0949    0.0000 C   0  0
    2.7799   -0.3129    0.0000 N   0  0
    5.2912   -3.2925    0.0000 N   0  0
    4.7389   -3.9021    0.0000 C   0  0
    4.9886   -4.6842    0.0000 C   0  0
    5.7941   -4.8621    0.0000 N   0  0
    6.3496   -4.2514    0.0000 C   0  0
    6.0997   -3.4630    0.0000 C   0  0
    6.0438   -5.6478    0.0000 C   0  0
    2.7802    2.1573    0.0000 N   0  0
    8.5822    2.4413    0.0000 Br  0  0
  9 10  1  0
 19 20  2  0
  3  4  1  0
 20 21  1  0
 10 11  2  0
 21 22  2  0
 11 14  1  0
 22 23  1  0
  4  5  1  0
 23 24  2  0
 24 19  1  0
 10 12  1  0
 20 25  1  0
  5  6  1  0
 22 26  1  0
 26 29  1  0
  8 42  1  0
 28  7  1  0
  7 27  1  0
 27 26  2  0
 13 14  2  0
  1  2  1  0
 28 29  2  0
  1  7  1  1
 29 30  1  0
 30 31  2  0
 13  8  1  0
 31 32  1  0
  1  6  1  0
 32 33  2  0
 33 28  1  0
 14 15  1  0
  4 34  1  1
 34 35  1  0
 15 16  2  0
 16 17  1  0
 17 13  1  0
  8  9  2  0
 16 18  1  0
 34 39  1  0
 35 36  1  0
 36 37  1  0
 37 38  1  0
 38 39  1  0
  2  3  1  0
 37 40  1  0
 18 19  1  0
 30 41  1  0
M  END
> <chembl_id>
CHEMBL1256418

$$$$

  SciTegic12131613482D

 24 27  0  0  0  0            999 V2000
    0.8955    2.0810    0.0000 C   0  0
    1.7138    1.2033    0.0000 C   0  0
    2.8908    1.4370    0.0000 C   0  0
   -1.0028    1.5132    0.0000 N   0  0
   -2.3155    0.7475    0.0000 C   0  0
   -2.3155   -0.7475    0.0000 N   0  0
   -1.0028   -1.5132    0.0000 C   0  0
    0.2917    0.7475    0.0000 C   0  0
    0.2917   -0.7475    0.0000 C   0  0
    1.7138   -1.2033    0.0000 C   0  0
    2.5889    0.0182    0.0000 O   0  0
   -3.6168    1.4950    0.0000 C   0  0
   -4.9669    0.8708    0.0000 C   0  0
   -5.9732    1.9832    0.0000 N   0  0
   -5.2262    3.2840    0.0000 N   0  0
   -3.7582    2.9755    0.0000 C   0  0
   -0.9971   -3.0138    0.0000 N   0  0
   -2.2935   -3.7700    0.0000 C   0  0
   -2.4279   -5.2511    0.0000 C   0  0
   -3.8944   -5.5664    0.0000 C   0  0
   -4.6474   -4.2692    0.0000 N   0  0
   -3.6464   -3.1521    0.0000 N   0  0
   -4.3799   -6.6638    0.0000 Cl  0  0
   -1.5295   -6.0466    0.0000 Cl  0  0
  2  1  1  0
  3  2  1  0
  8  4  1  0
  4  5  2  0
  5  6  1  0
  6  7  2  0
  7  9  1  0
  8  9  2  0
  9 10  1  0
 10 11  1  0
 11  2  1  0
  2  8  1  0
  5 12  1  0
 12 13  2  0
 13 14  1  0
 14 15  1  0
 15 16  2  0
 16 12  1  0
  7 17  1  0
 17 18  1  0
 18 19  1  0
 19 20  2  0
 20 21  1  0
 21 22  1  0
 22 18  2  0
 20 23  1  0
 19 24  1  0
M  END
> <chembl_id>
CHEMBL3758646

$$$$

  SciTegic02271217242D

 25 28  0  0  0  0            999 V2000
    9.5497   -1.2860    0.0000 N   0  0
   10.2662   -0.8727    0.0000 C   0  0
   10.2633   -0.0422    0.0000 N   0  0
    9.5479    0.3670    0.0000 C   0  0
    8.8349   -0.8732    0.0000 C   0  0
    8.8362   -0.0442    0.0000 C   0  0
    8.0482    0.2131    0.0000 N   0  0
    7.5599   -0.4568    0.0000 C   0  0
    8.0462   -1.1281    0.0000 C   0  0
    9.5461    1.1920    0.0000 N   0  0
   10.2597    1.6060    0.0000 C   0  0
   10.9719    1.1921    0.0000 C   0  0
   11.6850    1.6055    0.0000 C   0  0
   11.6837    2.4314    0.0000 C   0  0
   10.9633    2.8422    0.0000 C   0  0
   10.2531    2.4264    0.0000 C   0  0
   12.4002    1.1943    0.0000 Cl  0  0
   12.3967    2.8464    0.0000 O   0  0
   13.1126    2.4364    0.0000 C   0  0
   13.1126    1.6114    0.0000 C   0  0
   13.8277    1.2015    0.0000 C   0  0
   14.5417    1.6166    0.0000 C   0  0
   14.5361    2.4458    0.0000 C   0  0
   13.8205    2.8520    0.0000 C   0  0
   13.8145    3.6770    0.0000 F   0  0
 11 12  2  0
  5  1  1  0
 12 13  1  0
  2  3  1  0
 13 14  2  0
 14 15  1  0
  3  4  2  0
 15 16  2  0
 16 11  1  0
  6  7  1  0
 13 17  1  0
  7  8  1  0
 14 18  1  0
  8  9  2  0
 18 19  1  0
  9  5  1  0
 19 20  2  0
  4  6  1  0
 20 21  1  0
  4 10  1  0
 21 22  2  0
  5  6  2  0
 22 23  1  0
 10 11  1  0
 23 24  2  0
 24 19  1  0
  1  2  2  0
 24 25  1  0
M  END
> <chembl_id>
CHEMBL1922898

$$$$

  SciTegic12091615102D

 37 41  0  0  0  0            999 V2000
   -3.8954    7.5022    0.0000 C   0  0
   -5.1917    8.2569    0.0000 C   0  0
   -6.4935    7.5116    0.0000 C   0  0
   -6.4988    6.0116    0.0000 C   0  0
   -5.2025    5.2568    0.0000 C   0  0
   -3.9008    6.0022    0.0000 C   0  0
   -5.2049    3.7560    0.0000 N   0  0
   -3.9067    3.0027    0.0000 C   0  0
   -3.9091    1.5019    0.0000 N   0  0
   -2.8664    3.6008    0.0000 O   0  0
   -2.6111    0.7486    0.0000 C   0  0
   -2.6111   -0.7486    0.0000 C   0  0
   -1.2964   -1.4973    0.0000 C   0  0
   -1.2964    1.4973    0.0000 C   0  0
   -5.1894    9.7577    0.0000 C   0  0
    0.0000    0.7486    0.0000 C   0  0
    0.0000   -0.7486    0.0000 C   0  0
    1.2964   -1.4973    0.0000 N   0  0
    2.5929   -0.7486    0.0000 C   0  0
    2.5929    0.7486    0.0000 N   0  0
    1.2964    1.4973    0.0000 C   0  0
    1.2995    2.9981    0.0000 N   0  0
    2.6003    3.7467    0.0000 C   0  0
    2.6056    5.2467    0.0000 C   0  0
    3.9072    5.9922    0.0000 C   0  0
    5.2037    5.2377    0.0000 C   0  0
    5.1985    3.7377    0.0000 C   0  0
    3.8969    2.9922    0.0000 C   0  0
   -6.4876   10.5109    0.0000 N   0  0
    6.4956    2.9828    0.0000 C   0  0
    7.5373    3.5786    0.0000 F   0  0
    6.4911    1.7829    0.0000 F   0  0
    7.5325    2.3788    0.0000 F   0  0
   -6.6253   11.9918    0.0000 C   0  0
   -8.0925   12.3038    0.0000 C   0  0
   -8.8426   11.0049    0.0000 C   0  0
   -7.8390    9.8900    0.0000 C   0  0
  1  2  2  0
  2  3  1  0
  3  4  2  0
  4  5  1  0
  5  6  2  0
  6  1  1  0
  5  7  1  0
  7  8  1  0
  8  9  1  0
  8 10  2  0
  9 11  1  0
 11 12  2  0
 12 13  1  0
 13 17  2  0
 16 14  2  0
 14 11  1  0
  2 15  1  0
 16 17  1  0
 17 18  1  0
 18 19  2  0
 19 20  1  0
 20 21  2  0
 21 16  1  0
 21 22  1  0
 22 23  1  0
 23 24  2  0
 24 25  1  0
 25 26  2  0
 26 27  1  0
 27 28  2  0
 28 23  1  0
 15 29  1  0
 27 30  1  0
 30 31  1  0
 30 32  1  0
 30 33  1  0
 29 34  1  0
 34 35  1  0
 35 36  1  0
 36 37  1  0
 37 29  1  0
M  END
> <chembl_id>
CHEMBL3740910

$$$$

  SciTegic12201611512D

 27 30  0  0  0  0            999 V2000
   -2.1332   -2.2973    0.0000 N   0  0
   -3.4277   -1.5498    0.0000 C   0  0
   -3.4277    0.0000    0.0000 N   0  0
   -2.1332    0.6928    0.0000 C   0  0
   -0.8205    0.0000    0.0000 C   0  0
    0.4558    0.6928    0.0000 C   0  0
    1.7503    0.0000    0.0000 C   0  0
    1.7503   -1.5498    0.0000 C   0  0
    0.4558   -2.2973    0.0000 C   0  0
   -0.8205   -1.5498    0.0000 C   0  0
    0.4558    2.1879    0.0000 O   0  0
    3.0631    0.6928    0.0000 O   0  0
    3.0631    2.1879    0.0000 C   0  0
    1.7503    2.9537    0.0000 C   0  0
   -2.1454    2.1947    0.0000 N   0  0
    3.0410   -2.3153    0.0000 O   0  0
    3.0239   -3.8160    0.0000 C   0  0
    4.0559   -4.4284    0.0000 C   0  0
    1.9778   -4.4039    0.0000 C   0  0
   -3.4508    2.9353    0.0000 C   0  0
   -3.4653    4.4352    0.0000 C   0  0
   -4.7714    5.1728    0.0000 C   0  0
   -6.0632    4.4104    0.0000 C   0  0
   -6.0489    2.9104    0.0000 C   0  0
   -4.7427    2.1729    0.0000 C   0  0
   -7.1082    5.0004    0.0000 F   0  0
   -4.7829    6.3727    0.0000 Cl  0  0
  1  2  1  0
  2  3  2  0
  3  4  1  0
  4  5  2  0
  5  6  1  0
  6  7  2  0
  7  8  1  0
  8  9  2  0
  9 10  1  0
  1 10  2  0
  5 10  1  0
 12 13  1  0
 13 14  1  0
 11 14  1  0
  6 11  1  0
  7 12  1  0
  4 15  1  0
 17 18  1  0
 17 19  1  0
 16 17  1  0
  8 16  1  0
 20 21  1  0
 21 22  2  0
 22 23  1  0
 23 24  2  0
 24 25  1  0
 20 25  2  0
 23 26  1  0
 22 27  1  0
 15 20  1  0
M  END
> <chembl_id>
CHEMBL3805283

$$$$

  SciTegic09261414462D

 31 34  0  0  0  0            999 V2000
    7.8208  -23.5980    0.0000 N   0  0
    8.5305  -23.1886    0.0000 C   0  0
    8.5277  -22.3659    0.0000 N   0  0
    7.8190  -21.9607    0.0000 C   0  0
    7.1128  -23.1891    0.0000 C   0  0
    7.1140  -22.3726    0.0000 C   0  0
    6.3378  -22.1190    0.0000 C   0  0
    5.8568  -22.7789    0.0000 C   0  0
    6.3358  -23.4402    0.0000 S   0  0
    7.8153  -21.1435    0.0000 N   0  0
    8.5211  -20.7316    0.0000 C   0  0
    9.2285  -21.1418    0.0000 C   0  0
    9.9338  -20.7306    0.0000 C   0  0
    9.9305  -19.9125    0.0000 C   0  0
    9.2160  -19.5074    0.0000 C   0  0
    8.5135  -19.9209    0.0000 C   0  0
    5.0396  -22.7778    0.0000 N   0  0
    4.6321  -22.0695    0.0000 C   0  0
    3.8149  -22.0683    0.0000 C   0  0
    5.0417  -21.3623    0.0000 O   0  0
   10.6358  -19.4998    0.0000 F   0  0
   10.6432  -21.1363    0.0000 Cl  0  0
    3.4073  -21.3600    0.0000 C   0  0
    2.5901  -21.3588    0.0000 C   0  0
    2.1825  -20.6505    0.0000 N   0  0
    2.5922  -19.9434    0.0000 C   0  0
    3.4097  -19.9423    0.0000 C   0  0
    3.8192  -19.2392    0.0000 C   0  0
    3.4151  -18.5285    0.0000 O   0  0
    2.5970  -18.5254    0.0000 C   0  0
    2.1829  -19.2329    0.0000 C   0  0
  5  1  1  0
  1  2  2  0
  2  3  1  0
  3  4  2  0
  4  6  1  0
  5  6  2  0
  6  7  1  0
  7  8  2  0
  8  9  1  0
  9  5  1  0
  4 10  1  0
 10 11  1  0
 11 12  2  0
 12 13  1  0
 13 14  2  0
 14 15  1  0
 15 16  2  0
 16 11  1  0
  8 17  1  0
 17 18  1  0
 18 19  1  0
 18 20  2  0
 14 21  1  0
 13 22  1  0
 19 23  2  0
 23 24  1  0
 24 25  1  0
 25 26  1  0
 26 27  1  0
 26 31  1  0
 27 28  1  0
 28 29  1  0
 29 30  1  0
 30 31  1  0
M  END
> <chembl_id>
CHEMBL3233775

$$$$

  SciTegic12131613482D

 27 31  0  0  0  0            999 V2000
    0.8955    2.0810    0.0000 C   0  0
    1.7138    1.2033    0.0000 C   0  0
    2.8908    1.4370    0.0000 C   0  0
   -1.0028    1.5132    0.0000 N   0  0
   -2.3155    0.7475    0.0000 C   0  0
   -2.3155   -0.7475    0.0000 N   0  0
   -1.0028   -1.5132    0.0000 C   0  0
    0.2917    0.7475    0.0000 C   0  0
    0.2917   -0.7475    0.0000 C   0  0
    1.7138   -1.2033    0.0000 C   0  0
    2.5889    0.0182    0.0000 O   0  0
   -3.6168    1.4950    0.0000 C   0  0
   -4.9669    0.8708    0.0000 C   0  0
   -5.9732    1.9832    0.0000 N   0  0
   -5.2262    3.2840    0.0000 N   0  0
   -3.7582    2.9755    0.0000 C   0  0
   -0.9971   -3.0138    0.0000 N   0  0
   -2.2935   -3.7700    0.0000 C   0  0
   -4.6304   -4.2656    0.0000 N   0  0
   -3.6203   -3.1531    0.0000 N   0  0
   -3.8857   -5.5600    0.0000 C   0  0
   -2.4241   -5.2456    0.0000 C   0  0
   -1.4032   -6.3500    0.0000 C   0  0
   -1.8757   -7.7944    0.0000 C   0  0
   -3.3373   -8.1089    0.0000 C   0  0
   -4.3620   -6.9866    0.0000 C   0  0
   -5.5359   -7.2354    0.0000 F   0  0
  2  1  1  0
  3  2  1  0
  8  4  1  0
  4  5  2  0
  5  6  1  0
  6  7  2  0
  7  9  1  0
  8  9  2  0
  9 10  1  0
 10 11  1  0
 11  2  1  0
  2  8  1  0
  5 12  1  0
 12 13  2  0
 13 14  1  0
 14 15  1  0
 15 16  2  0
 16 12  1  0
  7 17  1  0
 17 18  1  0
 18 22  1  0
 21 19  1  0
 19 20  1  0
 20 18  2  0
 21 22  2  0
 22 23  1  0
 23 24  2  0
 24 25  1  0
 25 26  2  0
 26 21  1  0
 26 27  1  0
M  END
> <chembl_id>
CHEMBL3759615

$$$$

  SciTegic05061409512D

 26 29  0  0  0  0            999 V2000
   13.2108  -27.8836    0.0000 N   0  0
   13.9161  -27.4791    0.0000 C   0  0
   13.9161  -26.6619    0.0000 N   0  0
   13.2108  -26.2492    0.0000 C   0  0
   12.5055  -27.4791    0.0000 C   0  0
   12.5010  -26.6620    0.0000 C   0  0
   11.7297  -27.7358    0.0000 S   0  0
   11.2457  -27.0775    0.0000 C   0  0
   11.7212  -26.4176    0.0000 C   0  0
   11.3893  -25.6799    0.0000 C   0  0
   10.5809  -25.5960    0.0000 C   0  0
   10.1054  -26.2559    0.0000 N   0  0
   10.4384  -26.9997    0.0000 C   0  0
   13.2119  -25.4320    0.0000 N   0  0
    9.2925  -26.1728    0.0000 C   0  0
    8.9579  -25.4273    0.0000 C   0  0
    8.8141  -26.8354    0.0000 O   0  0
    9.4363  -24.7647    0.0000 C   0  0
   13.9201  -25.0243    0.0000 C   0  0
   14.6265  -25.4355    0.0000 C   0  0
   15.3343  -25.0285    0.0000 C   0  0
   15.3358  -24.2105    0.0000 C   0  0
   14.6237  -23.8011    0.0000 C   0  0
   13.9188  -24.2104    0.0000 C   0  0
   16.0436  -23.8019    0.0000 C   0  0
   16.7513  -24.2105    0.0000 C   0  0
  6  4  1  0
  5  1  1  0
  1  2  2  0
  2  3  1  0
  3  4  2  0
  5  6  2  0
  6  9  1  0
  8  7  1  0
  7  5  1  0
  8  9  2  0
  8 13  1  0
  9 10  1  0
 10 11  1  0
 11 12  1  0
 12 13  1  0
  4 14  1  0
 12 15  1  0
 15 16  1  0
 15 17  2  0
 16 18  2  0
 14 19  1  0
 19 20  2  0
 20 21  1  0
 21 22  2  0
 22 23  1  0
 23 24  2  0
 24 19  1  0
 22 25  1  0
 25 26  1  0
M  END
> <chembl_id>
CHEMBL3133899

$$$$

  SciTegic05221516342D

 36 39  0  0  0  0            999 V2000
   21.5833   -3.3131    0.0000 C   0  0
   21.9919   -2.6040    0.0000 C   0  0
   21.5833   -1.8950    0.0000 C   0  0
   21.9919   -1.1900    0.0000 C   0  0
   21.9919   -4.0181    0.0000 O   0  0
   20.7661   -3.3131    0.0000 N   0  0
   22.8091   -2.6040    0.0000 F   0  0
   22.8091   -1.1900    0.0000 N   0  0
   23.2177   -0.4809    0.0000 C   0  0
   23.2177   -1.8950    0.0000 C   0  0
   19.1317   -6.1412    0.0000 N   0  0
   18.3145   -6.1412    0.0000 C   0  0
   17.9059   -5.4363    0.0000 N   0  0
   18.3145   -4.7272    0.0000 C   0  0
   19.1317   -4.7272    0.0000 C   0  0
   19.5403   -4.0181    0.0000 C   0  0
   20.3575   -4.0181    0.0000 C   0  0
   20.7661   -4.7272    0.0000 C   0  0
   20.3575   -5.4363    0.0000 C   0  0
   19.5403   -5.4363    0.0000 C   0  0
   21.5833   -4.7272    0.0000 O   0  0
   21.9919   -5.4363    0.0000 C   0  0
   22.8091   -5.4363    0.0000 C   0  0
   17.9059   -4.0181    0.0000 N   0  0
   17.0887   -4.0181    0.0000 C   0  0
   16.6801   -4.7272    0.0000 C   0  0
   15.8630   -4.7272    0.0000 C   0  0
   15.4544   -4.0181    0.0000 C   0  0
   15.8630   -3.3131    0.0000 C   0  0
   16.6801   -3.3131    0.0000 C   0  0
   14.6372   -4.0181    0.0000 O   0  0
   14.2286   -3.3131    0.0000 C   0  0
   13.4114   -3.3131    0.0000 C   0  0
   12.7023   -3.7217    0.0000 C   0  0
   12.7023   -2.9045    0.0000 C   0  0
   15.4544   -5.4363    0.0000 Cl  0  0
  1  2  1  0
  2  3  2  0
  3  4  1  0
  1  5  2  0
  1  6  1  0
  2  7  1  0
  8  9  1  0
  8 10  1  0
  4  8  1  0
 11 12  1  0
 12 13  2  0
 13 14  1  0
 14 15  2  0
 15 16  1  0
 16 17  2  0
 17 18  1  0
 18 19  2  0
 19 20  1  0
 11 20  2  0
 15 20  1  0
 22 23  1  0
 21 22  1  0
 18 21  1  0
 25 26  1  0
 26 27  2  0
 27 28  1  0
 28 29  2  0
 29 30  1  0
 25 30  2  0
 31 32  1  0
 33 34  1  0
 34 35  1  0
 33 35  1  0
 32 33  1  0
 28 31  1  0
 27 36  1  0
 24 25  1  0
 14 24  1  0
  6 17  1  0
M  END
> <chembl_id>
CHEMBL3357652

$$$$

  SciTegic06061310022D

 45 51  0  0  0  0            999 V2000
    1.8221    0.5095    0.0000 N   0  0
    2.3741   -0.1036    0.0000 C   0  0
    2.1192   -0.8883    0.0000 N   0  0
    1.0151    0.3379    0.0000 C   0  0
    0.7602   -0.4467    0.0000 C   0  0
    1.3122   -1.0598    0.0000 C   0  0
    0.8997   -1.7743    0.0000 N   0  0
    0.0927   -1.6027    0.0000 N   0  0
    0.0065   -0.7823    0.0000 C   0  0
    0.4631    0.9510    0.0000 N   0  0
   -0.7080   -0.3698    0.0000 C   0  0
   -1.4224   -0.7823    0.0000 C   0  0
   -1.4224    0.8677    0.0000 C   0  0
   -0.7080    0.4552    0.0000 C   0  0
    1.2353   -2.5279    0.0000 C   0  0  1  0  0  0
    2.0558   -2.6142    0.0000 C   0  0
    2.3913   -3.3678    0.0000 C   0  0
    1.9064   -4.0353    0.0000 C   0  0  1  0  0  0
    1.0859   -3.9491    0.0000 C   0  0
    0.7503   -3.1954    0.0000 C   0  0
    2.2419   -4.7890    0.0000 N   0  0
    3.0624   -4.8752    0.0000 C   0  0
    3.3980   -5.6289    0.0000 C   0  0
    2.9131   -6.2963    0.0000 N   0  0
    2.0926   -6.2101    0.0000 C   0  0
    1.7570   -5.4564    0.0000 C   0  0
   -2.1369    0.4552    0.0000 C   0  0
   -2.1369   -0.3698    0.0000 C   0  0
   -2.9215   -0.6247    0.0000 N   0  0
   -3.4065    0.0427    0.0000 C   0  0
   -2.9215    0.7102    0.0000 N   0  0
   -4.2315    0.0427    0.0000 C   0  0
   -4.6440    0.7572    0.0000 C   0  0
   -5.4690    0.7572    0.0000 C   0  0
   -5.8815    1.4717    0.0000 C   0  0
   -5.4690    2.1862    0.0000 C   0  0
   -4.6440    2.1862    0.0000 C   0  0
   -4.2315    1.4717    0.0000 C   0  0
   -3.4065    1.4717    0.0000 O   0  0
   -2.9940    2.1862    0.0000 C   0  0
    3.2486   -7.0500    0.0000 C   0  0
    4.0691   -7.1362    0.0000 O   0  0
    2.7637   -7.7174    0.0000 O   0  0
    4.4047   -7.8899    0.0000 C   0  0
    5.2251   -7.9761    0.0000 C   0  0
 21 22  1  0
  4  1  1  0
  4 10  1  0
  5  6  1  0
 11 12  2  0
 12 28  1  0
 21 26  1  0
 22 23  1  0
 23 24  1  0
 24 25  1  0
 25 26  1  0
 18 21  1  6
 27 28  2  0
  2  3  1  0
 27 13  1  0
  3  6  2  0
 13 14  2  0
 14 11  1  0
 28 29  1  0
 29 30  1  0
 30 31  2  0
 31 27  1  0
  9 11  1  0
 30 32  1  0
 15 16  1  0
 32 33  1  0
  1  2  2  0
 33 34  2  0
  5  4  2  0
 34 35  1  0
  6  7  1  0
 35 36  2  0
  7  8  1  0
 36 37  1  0
  8  9  2  0
 37 38  2  0
 38 33  1  0
  9  5  1  0
 38 39  1  0
 15 20  1  0
 39 40  1  0
 16 17  1  0
 24 41  1  0
 17 18  1  0
 41 42  1  0
 18 19  1  0
 41 43  2  0
 19 20  1  0
 42 44  1  0
 15  7  1  1
 44 45  1  0
M  END
> <chembl_id>
CHEMBL503638

$$$$

  SciTegic02271217242D

 34 37  0  0  0  0            999 V2000
   12.3414   -2.4235    0.0000 N   0  0
   13.0578   -2.0102    0.0000 C   0  0
   13.0550   -1.1797    0.0000 N   0  0
   12.3396   -0.7705    0.0000 C   0  0
   11.6266   -2.0107    0.0000 C   0  0
   11.6278   -1.1818    0.0000 C   0  0
   10.8398   -0.9244    0.0000 N   0  0
   10.3516   -1.5943    0.0000 C   0  0
   10.8378   -2.2656    0.0000 C   0  0
   12.3378    0.0545    0.0000 N   0  0
   13.0513    0.4685    0.0000 C   0  0
   13.7636    0.0546    0.0000 C   0  0
   14.4767    0.4680    0.0000 C   0  0
   14.4753    1.2939    0.0000 C   0  0
   13.7549    1.7047    0.0000 C   0  0
   13.0448    1.2889    0.0000 C   0  0
   15.1919    0.0568    0.0000 Cl  0  0
   15.1883    1.7089    0.0000 O   0  0
   10.5861   -0.1394    0.0000 C   0  0
   15.9043    1.2989    0.0000 C   0  0
   15.9043    0.4739    0.0000 C   0  0
   16.6194    0.0640    0.0000 C   0  0
   17.3334    0.4791    0.0000 C   0  0
   17.3278    1.3083    0.0000 C   0  0
   16.6121    1.7145    0.0000 C   0  0
   18.0393    1.7259    0.0000 C   0  0
   18.7567    1.3184    0.0000 F   0  0
   18.0335    2.5509    0.0000 F   0  0
   18.7500    2.1458    0.0000 F   0  0
    9.7794    0.0334    0.0000 C   0  0
    9.5257    0.8184    0.0000 N   0  0
    8.7190    0.9912    0.0000 C   0  0
    8.4652    1.7762    0.0000 C   0  0
    7.6585    1.9489    0.0000 O   0  0
 16 11  1  0
  6  7  1  0
 13 17  1  0
  7  8  1  0
 14 18  1  0
  8  9  2  0
  7 19  1  0
  9  5  1  0
 18 20  1  0
  4  6  1  0
 20 21  2  0
  4 10  1  0
 21 22  1  0
  5  6  2  0
 22 23  2  0
 10 11  1  0
 23 24  1  0
  1  2  2  0
 24 25  2  0
 25 20  1  0
 11 12  2  0
 24 26  1  0
  5  1  1  0
 26 27  1  0
 12 13  1  0
 26 28  1  0
  2  3  1  0
 26 29  1  0
 13 14  2  0
 19 30  1  0
 30 31  1  0
 14 15  1  0
 31 32  1  0
  3  4  2  0
 32 33  1  0
 15 16  2  0
 33 34  1  0
M  END
> <chembl_id>
CHEMBL1923013

$$$$

  SciTegic04301217312D

 37 40  0  0  0  0            999 V2000
   -2.5306   -5.7541    0.0000 C   0  0
   -2.5318   -6.5815    0.0000 C   0  0
   -1.8169   -6.9944    0.0000 C   0  0
   -1.1005   -6.5810    0.0000 C   0  0
   -1.1034   -5.7505    0.0000 C   0  0
   -1.8187   -5.3414    0.0000 C   0  0
   -0.3854   -6.9924    0.0000 N   0  0
   -3.2452   -5.3418    0.0000 O   0  0
   -3.9595   -5.7545    0.0000 C   0  0
    0.3284   -6.5788    0.0000 C   0  0
    1.0433   -6.9903    0.0000 C   0  0
    1.0593   -7.8130    0.0000 N   0  0
    1.8479   -8.0555    0.0000 N   0  0
    2.3222   -7.3804    0.0000 C   0  0
    1.8266   -6.7208    0.0000 N   0  0
    2.0663   -5.9359    0.0000 C   0  0
    2.8717   -5.7520    0.0000 C   0  0
    3.1137   -4.9641    0.0000 C   0  0
    2.5513   -4.3593    0.0000 C   0  0
    1.7437   -4.5478    0.0000 C   0  0
    1.5055   -5.3354    0.0000 C   0  0
    3.1471   -7.3672    0.0000 S   0  0
    3.5709   -8.0750    0.0000 C   0  0
    4.3958   -8.0618    0.0000 C   0  0
    4.8197   -8.7696    0.0000 N   0  0
    4.7969   -7.3408    0.0000 O   0  0
    5.6446   -8.7564    0.0000 C   0  0
    6.0665   -9.4640    0.0000 C   0  0
    6.8907   -9.4512    0.0000 C   0  0
    7.2925   -8.7297    0.0000 C   0  0
    6.8642   -8.0196    0.0000 C   0  0
    6.0415   -8.0359    0.0000 C   0  0
    8.1174   -8.7154    0.0000 C   0  0
    8.5422   -9.4226    0.0000 O   0  0
    8.5175   -7.9939    0.0000 O   0  0
    9.3423   -7.9796    0.0000 C   0  0
    9.7424   -7.2581    0.0000 C   0  0
  8  9  1  0
 18 19  2  0
  4  5  1  0
 19 20  1  0
  7 10  1  0
 20 21  2  0
 21 16  1  0
 15 16  1  0
  2  3  1  0
 14 22  1  0
 10 11  1  0
 22 23  1  0
 11 12  2  0
 23 24  1  0
  5  6  2  0
 24 25  1  0
  6  1  1  0
 24 26  2  0
  1  2  2  0
 25 27  1  0
  4  7  1  0
 27 28  2  0
 12 13  1  0
 28 29  1  0
 13 14  2  0
 29 30  2  0
 14 15  1  0
 30 31  1  0
 15 11  1  0
 31 32  2  0
 32 27  1  0
  3  4  2  0
 30 33  1  0
  1  8  1  0
 33 34  2  0
 16 17  2  0
 33 35  1  0
 35 36  1  0
 17 18  1  0
 36 37  1  0
M  END
> <chembl_id>
CHEMBL1944931

$$$$

  SciTegic04201616412D

 32 35  0  0  0  0            999 V2000
    0.0000    0.7486    0.0000 C   0  0
   -1.2964    1.4973    0.0000 C   0  0
    0.0000   -0.7486    0.0000 C   0  0
    1.2964    1.4973    0.0000 C   0  0
   -2.6111    0.7486    0.0000 N   0  0
    1.2964   -1.4973    0.0000 C   0  0
   -1.2907    2.9981    0.0000 N   0  0
    2.5929    0.7486    0.0000 C   0  0
    2.5929   -0.7486    0.0000 C   0  0
   -5.1852    3.7608    0.0000 C   0  0
   -1.2964   -1.4973    0.0000 N   0  0
   -3.8880    3.0076    0.0000 C   0  0
   -2.6111   -0.7486    0.0000 C   0  0
   -2.5870    3.7544    0.0000 C   0  0
   -5.1815    5.2608    0.0000 C   0  0
   -3.8807    6.0076    0.0000 C   0  0
   -2.5835    5.2544    0.0000 C   0  0
    3.8911   -1.5017    0.0000 O   0  0
   -3.8777    7.2076    0.0000 Cl  0  0
   -1.5428    5.8519    0.0000 F   0  0
    3.8894   -2.7017    0.0000 C   0  0
    3.8911    1.5017    0.0000 O   0  0
    3.8890    3.0026    0.0000 C   0  0
    5.1872    3.7556    0.0000 N   0  0
    2.8487    3.6008    0.0000 O   0  0
    5.1872    5.2557    0.0000 C   0  0  2  0  0  0
    6.4863    6.0057    0.0000 C   0  0
    7.7853    5.2557    0.0000 N   0  0
    8.8245    5.8558    0.0000 C   0  0
    6.4863    3.0057    0.0000 C   0  0
    7.7853    3.7557    0.0000 C   0  0
    4.1480    5.8557    0.0000 C   0  0
  2  1  1  0
  3  1  1  0
  4  1  2  0
  5  2  2  0
  6  3  2  0
  7  2  1  0
  8  4  1  0
  9  8  2  0
 10 12  1  0
 11  3  1  0
 12 14  2  0
 13 11  2  0
 14  7  1  0
 15 16  1  0
 16 17  2  0
 17 14  1  0
 18  9  1  0
  6  9  1  0
 13  5  1  0
 10 15  2  0
 16 19  1  0
 17 20  1  0
 18 21  1  0
  8 22  1  0
 22 23  1  0
 23 24  1  0
 23 25  2  0
 24 26  1  0
 24 30  1  0
 26 27  1  0
 27 28  1  0
 28 31  1  0
 28 29  1  0
 31 30  1  0
 26 32  1  1
M  END
> <chembl_id>
CHEMBL3623291

$$$$

  SciTegic05061409512D

 29 32  0  0  0  0            999 V2000
   14.0122  -12.0129    0.0000 N   0  0
   13.3026  -11.6035    0.0000 C   0  0
   13.3054  -10.7808    0.0000 C   0  0
   14.0140  -10.3755    0.0000 C   0  0
   14.7203  -11.6039    0.0000 C   0  0
   14.7190  -10.7829    0.0000 C   0  0
   15.4995  -10.5279    0.0000 N   0  0
   15.9832  -11.1915    0.0000 C   0  0
   15.5015  -11.8564    0.0000 N   0  0
   16.8004  -11.1903    0.0000 C   0  0
   17.2052  -11.8998    0.0000 C   0  0
   18.0217  -11.8990    0.0000 C   0  0
   18.4301  -11.1901    0.0000 C   0  0
   18.0160  -10.4807    0.0000 C   0  0
   17.2010  -10.4850    0.0000 C   0  0
   19.2472  -11.1879    0.0000 O   0  0
   19.6578  -11.8944    0.0000 C   0  0
   12.6027  -10.3678    0.0000 C   0  0
   12.5216   -9.5544    0.0000 C   0  0
   11.7220   -9.3811    0.0000 S   0  0
   11.3113  -10.0889    0.0000 C   0  0
   11.8584  -10.6972    0.0000 C   0  0
   10.5021  -10.1771    0.0000 C   0  0
   10.0193   -9.5177    0.0000 O   0  0
   10.1725  -10.9248    0.0000 N   0  0
    9.3601  -11.0133    0.0000 C   0  0
    9.0305  -11.7611    0.0000 C   0  0
    8.2182  -11.8495    0.0000 C   0  0
    9.5134  -12.4204    0.0000 C   0  0
  5  1  1  0
  1  2  2  0
  2  3  1  0
  3  4  2  0
  4  6  1  0
  5  6  2  0
  6  7  1  0
  7  8  2  0
  8  9  1  0
  9  5  1  0
  8 10  1  0
 10 11  2  0
 11 12  1  0
 12 13  2  0
 13 14  1  0
 14 15  2  0
 15 10  1  0
 13 16  1  0
 16 17  1  0
 19 20  1  0
 18 19  2  0
 20 21  1  0
 21 22  2  0
 22 18  1  0
  3 18  1  0
 21 23  1  0
 23 24  2  0
 23 25  1  0
 25 26  1  0
 26 27  1  0
 27 28  1  0
 27 29  1  0
M  END
> <chembl_id>
CHEMBL3125727

$$$$

  SciTegic09261414462D

 30 33  0  0  0  0            999 V2000
   31.2759  -17.1100    0.0000 N   0  0
   31.9855  -16.7006    0.0000 C   0  0
   31.9827  -15.8779    0.0000 N   0  0
   31.2741  -15.4727    0.0000 C   0  0
   30.5678  -16.7011    0.0000 C   0  0
   30.5690  -15.8846    0.0000 C   0  0
   29.7928  -15.6310    0.0000 C   0  0
   29.3119  -16.2909    0.0000 C   0  0
   29.7909  -16.9522    0.0000 S   0  0
   31.2703  -14.6555    0.0000 N   0  0
   31.9761  -14.2436    0.0000 C   0  0
   32.6835  -14.6538    0.0000 C   0  0
   33.3889  -14.2426    0.0000 C   0  0
   33.3856  -13.4245    0.0000 C   0  0
   32.6710  -13.0194    0.0000 C   0  0
   31.9686  -13.4329    0.0000 C   0  0
   28.4947  -16.2898    0.0000 N   0  0
   28.0871  -15.5815    0.0000 C   0  0
   27.2699  -15.5803    0.0000 C   0  0
   28.4967  -14.8743    0.0000 O   0  0
   34.0908  -13.0118    0.0000 F   0  0
   34.0983  -14.6483    0.0000 Cl  0  0
   26.8623  -14.8720    0.0000 C   0  0
   26.0451  -14.8708    0.0000 C   0  0
   25.6376  -14.1625    0.0000 N   0  0
   24.8204  -14.1613    0.0000 C   0  0
   24.4128  -13.4530    0.0000 C   0  0
   24.6251  -12.6666    0.0000 C   0  0
   23.8361  -12.4539    0.0000 O   0  0
   23.6234  -13.2430    0.0000 C   0  0
  5  1  1  0
  1  2  2  0
  2  3  1  0
  3  4  2  0
  4  6  1  0
  5  6  2  0
  6  7  1  0
  7  8  2  0
  8  9  1  0
  9  5  1  0
  4 10  1  0
 10 11  1  0
 11 12  2  0
 12 13  1  0
 13 14  2  0
 14 15  1  0
 15 16  2  0
 16 11  1  0
  8 17  1  0
 17 18  1  0
 18 19  1  0
 18 20  2  0
 14 21  1  0
 13 22  1  0
 19 23  2  0
 23 24  1  0
 24 25  1  0
 25 26  1  0
 26 27  1  0
 27 28  1  0
 28 29  1  0
 29 30  1  0
 30 27  1  0
M  END
> <chembl_id>
CHEMBL3233774

$$$$

  SciTegic04191617032D

 30 33  0  0  0  0            999 V2000
    1.2990   -0.7500    0.0000 C   0  0
    1.2990    0.7500    0.0000 C   0  0
    0.0000    1.5000    0.0000 N   0  0
   -1.2990    0.7500    0.0000 C   0  0
   -1.2990   -0.7500    0.0000 N   0  0
    0.0000   -1.5000    0.0000 C   0  0
    0.0031   -3.0008    0.0000 N   0  0
    1.3039   -3.7494    0.0000 C   0  0
    1.4469   -5.2297    0.0000 C   0  0
    2.9152   -5.5365    0.0000 C   0  0
    3.6607   -4.2349    0.0000 N   0  0
    2.6532   -3.1236    0.0000 N   0  0
    3.4071   -6.6311    0.0000 C   0  0
   -2.6003    1.4977    0.0000 O   0  0
   -3.8990    0.7455    0.0000 C   0  0
   -5.2007    1.4909    0.0000 C   0  0
   -6.4972    0.7364    0.0000 C   0  0
   -6.4920   -0.7636    0.0000 C   0  0
   -5.1903   -1.5091    0.0000 C   0  0
   -3.8939   -0.7546    0.0000 C   0  0
    2.5987    1.5004    0.0000 N   0  0
    3.8991    0.7525    0.0000 C   0  0
    5.1969    1.5046    0.0000 C   0  0
    5.1945    3.0046    0.0000 N   0  0
    3.8943    3.7525    0.0000 C   0  0
    2.5964    3.0004    0.0000 C   0  0
    6.2328    3.6062    0.0000 C   0  0
   -7.7876   -1.5212    0.0000 N   0  3
   -7.7817   -2.7212    0.0000 O   0  0
   -8.8299   -0.9266    0.0000 O   0  5
  1  2  2  0
  2  3  1  0
  3  4  2  0
  4  5  1  0
  5  6  2  0
  6  1  1  0
  6  7  1  0
  7  8  1  0
  8  9  1  0
  9 10  2  0
 10 11  1  0
 11 12  1  0
 12  8  2  0
 10 13  1  0
  4 14  1  0
 14 15  1  0
 15 16  2  0
 16 17  1  0
 17 18  2  0
 18 19  1  0
 19 20  2  0
 20 15  1  0
  2 21  1  0
 21 22  1  0
 21 26  1  0
 22 23  1  0
 23 24  1  0
 24 25  1  0
 25 26  1  0
 24 27  1  0
 28 29  2  0
 28 30  1  0
 18 28  1  0
M  CHG  2  28   1  30  -1
M  END
> <chembl_id>
CHEMBL3604928

$$$$

  SciTegic12121614122D

 40 44  0  0  0  0            999 V2000
   -1.2913    7.5063    0.0000 C   0  0
   -2.5882    8.2616    0.0000 C   0  0
   -2.5845    9.4615    0.0000 C   0  0
   -0.2500    8.1028    0.0000 O   0  0
   -1.2959    6.0055    0.0000 N   0  0
    0.0011    5.2503    0.0000 C   0  0
   -0.0014    3.7503    0.0000 C   0  0
    1.2964    2.9980    0.0000 C   0  0
    2.5967    3.7460    0.0000 C   0  0
    2.5992    5.2460    0.0000 C   0  0
    1.3014    5.9981    0.0000 C   0  0
   -2.6111    0.7486    0.0000 C   0  0
   -1.2964    1.4973    0.0000 N   0  0
    0.0000    0.7486    0.0000 C   0  0
    0.0000   -0.7486    0.0000 C   0  0
   -1.2964   -1.4973    0.0000 C   0  0
   -2.6111   -0.7486    0.0000 N   0  0
    1.2964   -1.4973    0.0000 C   0  0
    2.5929   -0.7486    0.0000 C   0  0
    2.5929    0.7486    0.0000 C   0  0
    1.2964    1.4973    0.0000 N   0  0
    3.6321    1.3486    0.0000 O   0  0
   -3.9122    1.4966    0.0000 N   0  0
   -5.2109    0.7445    0.0000 C   0  0
   -6.5125    1.4901    0.0000 C   0  0
   -7.8091    0.7359    0.0000 C   0  0
   -7.8042   -0.7641    0.0000 C   0  0
   -6.5027   -1.5098    0.0000 C   0  0
   -5.2061   -0.7556    0.0000 C   0  0
   -9.1014   -1.5188    0.0000 N   0  0
  -10.4041   -0.7752    0.0000 C   0  0
  -11.6995   -1.5315    0.0000 C   0  0
  -11.6922   -3.0315    0.0000 N   0  0
  -10.3895   -3.7751    0.0000 C   0  0
   -9.0942   -3.0188    0.0000 C   0  0
  -12.7285   -3.6365    0.0000 C   0  0
   -6.5206    2.9910    0.0000 O   0  0
   -7.5627    3.5860    0.0000 C   0  0
    1.2995   -2.9981    0.0000 C   0  0
    2.3396   -3.5967    0.0000 C   0  0
  1  2  1  0
  2  3  2  0
  1  4  2  0
  1  5  1  0
  6  7  1  0
  7  8  2  0
  8  9  1  0
  9 10  2  0
 10 11  1  0
  6 11  2  0
 12 13  1  0
 13 14  2  0
 14 15  1  0
 15 16  2  0
 16 17  1  0
 12 17  2  0
 18 19  2  0
 19 20  1  0
 20 21  1  0
 14 21  1  0
 15 18  1  0
 20 22  2  0
 24 25  1  0
 25 26  2  0
 26 27  1  0
 27 28  2  0
 28 29  1  0
 24 29  2  0
 30 31  1  0
 31 32  1  0
 32 33  1  0
 33 34  1  0
 34 35  1  0
 30 35  1  0
 33 36  1  0
 27 30  1  0
 37 38  1  0
 25 37  1  0
 23 24  1  0
 12 23  1  0
 39 40  1  0
 18 39  1  0
  8 21  1  0
  5  6  1  0
M  END
> <chembl_id>
CHEMBL3751976

$$$$

  SciTegic01181116592D

 27 30  0  0  0  0            999 V2000
   17.4561  -21.9044    0.0000 N   0  0
   18.1731  -21.4908    0.0000 C   0  0
   18.1703  -20.6596    0.0000 N   0  0
   17.4543  -20.2500    0.0000 C   0  0
   17.4518  -19.4243    0.0000 N   0  0
   16.7407  -21.4913    0.0000 C   0  0
   16.7373  -20.6663    0.0000 C   0  0
   15.9570  -21.7493    0.0000 S   0  0
   15.4694  -21.0838    0.0000 C   0  0
   15.9514  -20.4161    0.0000 C   0  0
   15.6160  -19.6690    0.0000 C   0  0
   14.7976  -19.5831    0.0000 C   0  0
   14.3156  -20.2504    0.0000 N   0  0
   14.6519  -21.0043    0.0000 C   0  0
   18.1657  -19.0094    0.0000 C   0  0  1  0  0  0
   18.8820  -19.4201    0.0000 C   0  0
   18.1632  -18.1837    0.0000 C   0  0
   18.8822  -20.2431    0.0000 C   0  0
   19.5977  -20.6537    0.0000 C   0  0
   20.3125  -20.2387    0.0000 C   0  0
   20.3074  -19.4087    0.0000 C   0  0
   19.5914  -19.0019    0.0000 C   0  0
   18.8770  -17.7687    0.0000 O   0  0
   13.4901  -20.2686    0.0000 C   0  0
   13.0617  -19.5628    0.0000 O   0  0
   13.0931  -20.9926    0.0000 C   0  0
   12.2676  -21.0107    0.0000 C   0  0
 10 11  1  0
 11 12  1  0
 12 13  1  0
 13 14  1  0
  2  3  1  0
  5 15  1  0
 15 16  1  0
  7 10  1  0
 15 17  1  6
  9  8  1  0
 16 18  2  0
  8  6  1  0
 18 19  1  0
  9 10  2  0
 19 20  2  0
  3  4  2  0
 20 21  1  0
  4  7  1  0
 21 22  2  0
 22 16  1  0
  1  2  2  0
 17 23  1  0
  4  5  1  0
 13 24  1  0
  6  7  2  0
 24 25  2  0
  6  1  1  0
 24 26  1  0
  9 14  1  0
 26 27  1  0
M  END
> <chembl_id>
CHEMBL1272112

$$$$

  SciTegic05061409512D

 29 31  0  0  0  0            999 V2000
   16.0302  -12.0598    0.0000 O   0  0
   16.4429  -12.7696    0.0000 S   0  0
   16.8513  -12.0573    0.0000 O   0  0
   13.6196  -16.8624    0.0000 N   0  0
   14.3292  -16.4530    0.0000 C   0  0
   14.3264  -15.6303    0.0000 N   0  0
   13.6178  -15.2250    0.0000 C   0  0
   12.9115  -16.4534    0.0000 C   0  0
   12.9138  -15.6316    0.0000 C   0  0
   12.2043  -15.2204    0.0000 C   0  0
   11.4921  -15.6300    0.0000 C   0  0
   11.4937  -16.4551    0.0000 C   0  0
   12.2038  -16.8625    0.0000 C   0  0
   13.6161  -14.4079    0.0000 N   0  0
   10.7843  -15.2216    0.0000 N   0  0
   10.0766  -15.6303    0.0000 C   0  0
    9.3689  -15.2218    0.0000 C   0  0
   10.0768  -16.4475    0.0000 O   0  0
    8.6612  -15.6305    0.0000 C   0  0
   14.3229  -13.9978    0.0000 C   0  0
   15.0319  -14.4100    0.0000 C   0  0
   15.7382  -14.0006    0.0000 C   0  0
   15.7370  -13.1825    0.0000 C   0  0
   15.0234  -12.7756    0.0000 C   0  0
   14.3200  -13.1873    0.0000 C   0  0
   17.1524  -13.1777    0.0000 N   0  0
   17.8594  -12.7679    0.0000 C   0  0
   18.5678  -13.1753    0.0000 N   0  0
   17.8580  -11.9507    0.0000 N   0  0
  2  1  2  0
  3  2  2  0
  8  4  1  0
  4  5  2  0
  5  6  1  0
  6  7  2  0
  7  9  1  0
  8  9  1  0
  9 10  2  0
 10 11  1  0
 11 12  2  0
 12 13  1  0
 13  8  2  0
  7 14  1  0
 11 15  1  0
 15 16  1  0
 16 17  1  0
 16 18  2  0
 17 19  2  0
 14 20  1  0
 20 21  2  0
 21 22  1  0
 22 23  2  0
 23 24  1  0
 24 25  2  0
 25 20  1  0
 23  2  1  0
  2 26  1  0
 26 27  1  0
 27 28  1  0
 27 29  2  0
M  END
> <chembl_id>
CHEMBL3133911

$$$$

  SciTegic12191611242D

 29 32  0  0  0  0            999 V2000
   -8.4598    0.3211    0.0000 C   0  0
   -7.2652    0.2078    0.0000 N   0  0
   -6.5020   -1.0835    0.0000 N   0  0
   -5.0380   -0.7567    0.0000 C   0  0
   -6.2729    1.3327    0.0000 C   0  0
   -4.9153    0.7255    0.0000 C   0  0
   -3.6217    1.4865    0.0000 N   0  0
   -2.3155    0.7475    0.0000 C   0  0
   -1.0028    1.5132    0.0000 N   0  0
    0.2917    0.7475    0.0000 C   0  0
    0.2917   -0.7475    0.0000 C   0  0
    1.7138   -1.2033    0.0000 C   0  0
    2.0907   -2.3426    0.0000 Cl  0  0
    2.5889    0.0182    0.0000 C   0  0
    1.7138    1.2033    0.0000 N   0  0
   -1.0028   -1.5132    0.0000 C   0  0
   -0.9971   -3.0138    0.0000 O   0  0
   -2.2935   -3.7700    0.0000 C   0  0
   -2.2878   -5.2708    0.0000 C   0  0  1  0  0  0
   -1.0692   -6.1235    0.0000 C   0  0
   -1.5244   -7.5527    0.0000 N   0  0
   -0.6391   -8.7615    0.0000 C   0  0
   -1.2435  -10.1353    0.0000 C   0  0
   -0.5345  -11.1034    0.0000 C   0  0
    0.5538   -8.6312    0.0000 O   0  0
   -3.0244   -7.5615    0.0000 C   0  0
   -3.4962   -6.1377    0.0000 C   0  0  2  0  0  0
   -4.6375   -5.7668    0.0000 O   0  0
   -2.3155   -0.7475    0.0000 N   0  0
  1  2  1  0
  2  3  1  0
  3  4  2  0
  2  5  1  0
  5  6  2  0
  4  6  1  0
  6  7  1  0
  7  8  1  0
  8  9  2  0
  9 10  1  0
 10 11  2  0
 11 12  1  0
 12 13  1  0
 12 14  2  0
 14 15  1  0
 10 15  1  0
 11 16  1  0
 16 17  1  0
 17 18  1  0
 19 18  1  1
 19 20  1  0
 20 21  1  0
 21 22  1  0
 22 23  1  0
 23 24  2  0
 22 25  2  0
 21 26  1  0
 26 27  1  0
 19 27  1  0
 27 28  1  6
 16 29  2  0
  8 29  1  0
M  END
> <chembl_id>
CHEMBL3786220

$$$$

  SciTegic10011413212D

 44 49  0  0  0  0            999 V2000
   22.5636   -6.3559    0.0000 C   0  0
   22.5636   -7.1731    0.0000 C   0  0
   23.2688   -7.5776    0.0000 N   0  0
   23.9741   -7.1731    0.0000 C   0  0
   23.9741   -6.3559    0.0000 C   0  0
   23.2688   -5.9432    0.0000 N   0  0
   23.2688   -8.3948    0.0000 C   0  0
   23.2693   -5.1269    0.0000 C   0  0
   23.9786   -4.7189    0.0000 C   0  0
   23.9790   -3.9024    0.0000 C   0  0
   23.2707   -3.4930    0.0000 C   0  0
   22.5607   -3.9060    0.0000 C   0  0
   22.5638   -4.7211    0.0000 C   0  0
   21.8515   -3.4999    0.0000 O   0  0
   21.1452   -3.9110    0.0000 C   0  0
   23.2696   -2.6758    0.0000 N   0  0
   23.9768   -2.2663    0.0000 C   0  0
   24.6834   -2.6781    0.0000 N   0  0
   24.6762   -1.0437    0.0000 C   0  0
   23.9724   -1.4549    0.0000 N   0  0
   25.3944   -2.2678    0.0000 C   0  0
   25.3894   -1.4512    0.0000 C   0  0
   26.0273   -0.9325    0.0000 C   0  0
   26.0416   -2.7749    0.0000 N   0  0
   26.8409   -2.5844    0.0000 C   0  0
   25.8366   -0.1378    0.0000 O   0  0
   27.3574   -3.2176    0.0000 O   0  0
   25.8692   -3.5693    0.0000 C   0  0
   25.0890   -3.8164    0.0000 C   0  0
   24.9143   -4.6139    0.0000 C   0  0
   25.5187   -5.1652    0.0000 C   0  0
   26.3006   -4.9134    0.0000 C   0  0
   26.4717   -4.1165    0.0000 C   0  0
   26.9066   -5.4616    0.0000 N   0  0
   26.7348   -6.2606    0.0000 C   0  0
   27.3408   -6.8088    0.0000 C   0  0
   25.9570   -6.5113    0.0000 O   0  0
   27.1691   -7.6077    0.0000 C   0  0
   26.8240   -1.1074    0.0000 N   0  0
   27.1881   -1.8400    0.0000 C   0  0
   28.0002   -1.8907    0.0000 C   0  0
   28.4542   -1.2108    0.0000 C   0  0
   28.0900   -0.4782    0.0000 C   0  0
   27.2719   -0.4255    0.0000 C   0  0
  1  2  1  0
  1  6  1  0
  2  3  1  0
  3  4  1  0
  4  5  1  0
  5  6  1  0
  3  7  1  0
  8  9  2  0
  9 10  1  0
 10 11  2  0
 11 12  1  0
 12 13  2  0
 13  8  1  0
  6  8  1  0
 12 14  1  0
 14 15  1  0
 11 16  1  0
 16 17  1  0
 17 18  2  0
 18 21  1  0
 22 19  1  0
 19 20  2  0
 20 17  1  0
 21 22  2  0
 22 23  1  0
 21 24  1  0
 23 39  1  0
 24 25  1  0
 25 40  1  0
 23 26  2  0
 25 27  2  0
 28 29  2  0
 29 30  1  0
 30 31  2  0
 31 32  1  0
 32 33  2  0
 33 28  1  0
 24 28  1  0
 32 34  1  0
 34 35  1  0
 35 36  1  0
 35 37  2  0
 36 38  2  0
 39 40  1  0
 39 44  1  0
 40 41  1  0
 41 42  1  0
 42 43  1  0
 43 44  1  0
M  END
> <chembl_id>
CHEMBL3219127

$$$$

  SciTegic10011413212D

 42 46  0  0  0  0            999 V2000
   28.8452   -6.6118    0.0000 C   0  0
   28.8452   -7.4290    0.0000 C   0  0
   29.5505   -7.8335    0.0000 N   0  0
   30.2558   -7.4290    0.0000 C   0  0
   30.2558   -6.6118    0.0000 C   0  0
   29.5505   -6.1991    0.0000 N   0  0
   29.5505   -8.6507    0.0000 C   0  0
   29.5509   -5.3827    0.0000 C   0  0
   30.2603   -4.9747    0.0000 C   0  0
   30.2606   -4.1583    0.0000 C   0  0
   29.5524   -3.7489    0.0000 C   0  0
   28.8423   -4.1619    0.0000 C   0  0
   28.8454   -4.9770    0.0000 C   0  0
   28.1332   -3.7558    0.0000 O   0  0
   27.4269   -4.1669    0.0000 C   0  0
   29.5513   -2.9317    0.0000 N   0  0
   30.2584   -2.5222    0.0000 C   0  0
   30.9650   -2.9340    0.0000 N   0  0
   30.9578   -1.2996    0.0000 C   0  0
   30.2540   -1.7108    0.0000 N   0  0
   31.6760   -2.5237    0.0000 C   0  0
   31.6710   -1.7071    0.0000 C   0  0
   32.3090   -1.1883    0.0000 C   0  0
   32.3232   -3.0308    0.0000 N   0  0
   33.1226   -2.8403    0.0000 C   0  0
   33.1072   -1.3597    0.0000 N   0  0
   33.4698   -2.0959    0.0000 C   0  0
   32.1182   -0.3937    0.0000 O   0  0
   33.6391   -3.4735    0.0000 O   0  0
   32.1508   -3.8252    0.0000 C   0  0
   31.3707   -4.0723    0.0000 C   0  0
   31.1959   -4.8698    0.0000 C   0  0
   31.8003   -5.4210    0.0000 C   0  0
   32.5822   -5.1693    0.0000 C   0  0
   32.7533   -4.3724    0.0000 C   0  0
   33.1882   -5.7175    0.0000 N   0  0
   33.0165   -6.5165    0.0000 C   0  0
   33.6225   -7.0647    0.0000 C   0  0
   32.2387   -6.7672    0.0000 O   0  0
   33.4507   -7.8636    0.0000 C   0  0
   33.6098   -0.7153    0.0000 C   0  0
   34.2869   -2.0873    0.0000 C   0  0
  1  2  1  0
  1  6  1  0
  2  3  1  0
  3  4  1  0
  4  5  1  0
  5  6  1  0
  3  7  1  0
  8  9  2  0
  9 10  1  0
 10 11  2  0
 11 12  1  0
 12 13  2  0
 13  8  1  0
  6  8  1  0
 12 14  1  0
 14 15  1  0
 11 16  1  0
 16 17  1  0
 17 18  2  0
 18 21  1  0
 22 19  1  0
 19 20  2  0
 20 17  1  0
 21 22  2  0
 22 23  1  0
 21 24  1  0
 23 26  1  0
 24 25  1  0
 25 27  1  0
 26 27  1  0
 23 28  2  0
 25 29  2  0
 30 31  2  0
 31 32  1  0
 32 33  2  0
 33 34  1  0
 34 35  2  0
 35 30  1  0
 24 30  1  0
 34 36  1  0
 36 37  1  0
 37 38  1  0
 37 39  2  0
 38 40  2  0
 26 41  1  0
 27 42  1  0
M  END
> <chembl_id>
CHEMBL3219128

$$$$

  SciTegic10311316262D

 58 63  0  0  0  0            999 V2000
   18.8821   -2.2163    0.0000 O   0  0
   18.0649   -2.2163    0.0000 S   0  0
   18.4735   -2.9240    0.0000 O   0  0
   18.0601   -3.9210    0.0000 O   0  0
   17.3873   -3.4572    0.0000 C   0  0
   17.3651   -2.6396    0.0000 C   0  0
   16.5821   -2.4062    0.0000 N   0  3
   16.1183   -3.0791    0.0000 O   0  0
   16.6150   -3.7280    0.0000 N   0  0
   18.0502   -1.4011    0.0000 C   0  0
   18.7519   -0.9839    0.0000 C   0  0
   18.7373   -0.1676    0.0000 C   0  0
   18.0216    0.2335    0.0000 C   0  0
   17.3193   -0.1972    0.0000 C   0  0
   17.3374   -1.0121    0.0000 C   0  0
   23.7054   -8.8487    0.0000 C   0  0
   23.7042   -9.6683    0.0000 C   0  0
   24.4123  -10.0772    0.0000 C   0  0
   25.1219   -9.6678    0.0000 C   0  0
   25.1191   -8.8451    0.0000 C   0  0
   24.4105   -8.4399    0.0000 C   0  0
   22.9983   -8.4359    0.0000 N   0  0
   23.0001   -7.6178    0.0000 C   0  0
   22.2963   -7.2095    0.0000 C   0  0
   21.5863   -7.6147    0.0000 N   0  0
   21.5846   -8.4329    0.0000 C   0  0
   22.2928   -8.8457    0.0000 C   0  0
   20.8801   -7.2036    0.0000 C   0  0
   24.4121  -10.8944    0.0000 O   0  0
   23.7043  -11.3029    0.0000 C   0  0
   25.8303  -10.0753    0.0000 N   0  0
   26.5374   -9.6656    0.0000 C   0  0
   27.2424  -10.0735    0.0000 N   0  0
   27.9490   -9.6645    0.0000 C   0  0
   27.9481   -8.8464    0.0000 C   0  0
   27.2348   -8.4391    0.0000 C   0  0
   26.5311   -8.8505    0.0000 N   0  0
   28.6546   -8.4358    0.0000 Cl  0  0
   27.2306   -7.6219    0.0000 O   0  0
   27.9363   -7.2097    0.0000 C   0  0
   28.6465   -7.6171    0.0000 C   0  0
   29.3517   -7.2055    0.0000 C   0  0
   29.3480   -6.3875    0.0000 C   0  0
   28.6332   -5.9827    0.0000 C   0  0
   27.9310   -6.3965    0.0000 C   0  0
   30.0613   -7.6109    0.0000 N   0  0
   30.7671   -7.1990    0.0000 C   0  0
   31.4767   -7.6043    0.0000 C   0  0
   30.7633   -6.3818    0.0000 O   0  0
   32.1825   -7.1925    0.0000 C   0  0
   20.8830   -6.3865    0.0000 C   0  0
   20.1767   -5.9754    0.0000 O   0  0
   21.5921   -5.9804    0.0000 O   0  0
   19.4675   -6.3814    0.0000 C   0  0
   18.7613   -5.9703    0.0000 C   0  0
   18.7642   -5.1532    0.0000 C   0  0
   18.0579   -4.7421    0.0000 C   0  0
   16.3645   -1.6137    0.0000 O   0  5
  2  1  2  0
  3  2  2  0
  4  5  1  0
  5  6  1  0
  6  7  2  0
  7  8  1  0
  8  9  1  0
  9  5  2  0
  6  2  1  0
  2 10  1  0
 10 11  2  0
 11 12  1  0
 12 13  2  0
 13 14  1  0
 14 15  2  0
 15 10  1  0
 16 17  2  0
 17 18  1  0
 18 19  2  0
 19 20  1  0
 20 21  2  0
 21 16  1  0
 22 23  1  0
 22 27  1  0
 23 24  1  0
 24 25  1  0
 25 26  1  0
 26 27  1  0
 16 22  1  0
 25 28  1  0
 18 29  1  0
 29 30  1  0
 19 31  1  0
 31 32  1  0
 32 33  2  0
 33 34  1  0
 34 35  2  0
 35 36  1  0
 36 37  2  0
 37 32  1  0
 35 38  1  0
 36 39  1  0
 39 40  1  0
 40 41  2  0
 41 42  1  0
 42 43  2  0
 43 44  1  0
 44 45  2  0
 45 40  1  0
 42 46  1  0
 46 47  1  0
 47 48  1  0
 47 49  2  0
 48 50  2  0
 28 51  1  0
 51 52  1  0
 51 53  2  0
 52 54  1  0
 54 55  1  0
 55 56  1  0
 56 57  1  0
 57  4  1  0
  7 58  1  0
M  CHG  2   7   1  58  -1
M  END
> <chembl_id>
CHEMBL2381508

$$$$

  SciTegic12191611242D

 28 31  0  0  0  0            999 V2000
   -8.4598    0.3211    0.0000 C   0  0
   -7.2652    0.2078    0.0000 N   0  0
   -6.5020   -1.0835    0.0000 N   0  0
   -5.0380   -0.7567    0.0000 C   0  0
   -6.2729    1.3327    0.0000 C   0  0
   -4.9153    0.7255    0.0000 C   0  0
   -3.6217    1.4865    0.0000 N   0  0
   -2.3155    0.7475    0.0000 C   0  0
   -1.0028    1.5132    0.0000 N   0  0
    0.2917    0.7475    0.0000 C   0  0
    0.2917   -0.7475    0.0000 C   0  0
    1.7138   -1.2033    0.0000 C   0  0
    2.0907   -2.3426    0.0000 Cl  0  0
    2.5889    0.0182    0.0000 C   0  0
    1.7138    1.2033    0.0000 N   0  0
   -1.0028   -1.5132    0.0000 C   0  0
   -0.9971   -3.0138    0.0000 O   0  0
   -2.2935   -3.7700    0.0000 C   0  0
   -2.2878   -5.2708    0.0000 C   0  0  1  0  0  0
   -3.4962   -6.1377    0.0000 C   0  0
   -3.0243   -7.5615    0.0000 N   0  0
   -3.8953   -8.7806    0.0000 C   0  0
   -3.2749  -10.1472    0.0000 C   0  0
   -3.9725  -11.1236    0.0000 C   0  0
   -5.0897   -8.6643    0.0000 O   0  0
   -1.5244   -7.5527    0.0000 C   0  0
   -1.0692   -6.1235    0.0000 C   0  0
   -2.3155   -0.7475    0.0000 N   0  0
  1  2  1  0
  2  3  1  0
  3  4  2  0
  2  5  1  0
  5  6  2  0
  4  6  1  0
  6  7  1  0
  7  8  1  0
  8  9  2  0
  9 10  1  0
 10 11  2  0
 11 12  1  0
 12 13  1  0
 12 14  2  0
 14 15  1  0
 10 15  1  0
 11 16  1  0
 16 17  1  0
 17 18  1  0
 19 18  1  6
 19 20  1  0
 20 21  1  0
 21 22  1  0
 22 23  1  0
 23 24  2  0
 22 25  2  0
 21 26  1  0
 26 27  1  0
 19 27  1  0
 16 28  2  0
  8 28  1  0
M  END
> <chembl_id>
CHEMBL3786858

$$$$

  SciTegic12091611192D

 28 30  0  0  0  0            999 V2000
  -12.7129    0.6370    0.0000 C   0  0
  -11.4219    1.4024    0.0000 C   0  0
  -10.1131    0.6680    0.0000 C   0  0
  -13.7594    1.2242    0.0000 O   0  0
  -12.6986   -0.5629    0.0000 N   0  0
   -8.8221    1.4334    0.0000 S   0  0
   -7.5133    0.6990    0.0000 C   0  0
   -6.2219    1.4621    0.0000 N   0  0
   -4.9153    0.7255    0.0000 C   0  0
   -4.9001   -0.7745    0.0000 C   0  0
   -6.1914   -1.5377    0.0000 C   0  0
   -7.4980   -0.8010    0.0000 N   0  0
   -3.6217    1.4865    0.0000 N   0  0
   -1.0028   -1.5132    0.0000 C   0  0
    0.2917   -0.7475    0.0000 C   0  0
    0.2917    0.7475    0.0000 C   0  0
   -1.0028    1.5132    0.0000 C   0  0
   -2.3155    0.7475    0.0000 C   0  0
   -2.3155   -0.7475    0.0000 N   0  0
    2.5889    0.0182    0.0000 C   0  0
    1.7138   -1.2033    0.0000 N   0  0
    1.7138    1.2033    0.0000 N   0  0
    3.7889    0.0269    0.0000 C   0  0
    2.1812    2.6271    0.0000 C   0  0
    3.3556    2.8737    0.0000 C   0  0
    1.3808    3.5211    0.0000 C   0  0
  -10.3900    2.0149    0.0000 C   0  0
  -11.4362    2.6023    0.0000 C   0  0
  1  2  1  0
  2  3  1  0
  1  4  2  0
  1  5  1  0
  7  8  1  0
  8  9  2  0
  9 10  1  0
 10 11  2  0
 11 12  1  0
  7 12  2  0
 14 15  1  0
 15 16  2  0
 16 17  1  0
 17 18  2  0
 18 19  1  0
 14 19  2  0
 20 21  2  0
 20 22  1  0
 15 21  1  0
 16 22  1  0
 20 23  1  0
 24 25  1  0
 24 26  1  0
 22 24  1  0
 13 18  1  0
  9 13  1  0
  6  7  1  0
  3  6  1  0
  2 27  1  0
  2 28  1  0
M  END
> <chembl_id>
CHEMBL3736480

$$$$

  SciTegic12091611202D

 29 32  0  0  0  0            999 V2000
   -4.9282   -3.7385    0.0000 C   0  0
    1.5604   -6.0143    0.0000 C   0  0
   -2.3155    0.7475    0.0000 N   0  0
   -2.3155   -0.7475    0.0000 C   0  0
    1.7138    1.2033    0.0000 N   0  0
   -1.0028    1.5132    0.0000 C   0  0
    1.7138   -1.2033    0.0000 N   0  0
   -2.3350   -5.2470    0.0000 C   0  0
   -1.0449   -7.5017    0.0000 C   0  0
   -3.6187   -1.4919    0.0000 N   0  0
    2.5894   -8.1193    0.0000 O   0  0
    1.5531   -7.5143    0.0000 C   0  0  1  0  0  0
    0.2917   -0.7475    0.0000 C   0  0
    2.5889    0.0182    0.0000 C   0  0
   -2.3301   -3.7470    0.0000 N   0  0
    0.2650   -5.2580    0.0000 C   0  0
   -3.6267   -2.9927    0.0000 C   0  0
   -4.9331   -5.2385    0.0000 C   0  0
   -1.0028   -1.5132    0.0000 C   0  0
   -3.6365   -5.9928    0.0000 N   0  0
    0.2505   -8.2579    0.0000 C   0  0
    0.2917    0.7475    0.0000 C   0  0
   -1.0378   -6.0016    0.0000 N   0  0
    2.1855   -2.6254    0.0000 C   0  0
    3.3606   -2.8684    0.0000 C   0  0
    1.3877   -3.5218    0.0000 C   0  0
    3.7889    0.0269    0.0000 C   0  0
    2.5821   -6.6436    0.0000 F   0  0
    1.5380   -4.8145    0.0000 F   0  0
 12 11  1  1
 16  2  1  0
 23 16  1  0
 10  4  1  0
  4  3  1  0
 13  7  1  0
 17  1  1  0
 14  5  2  0
  2 12  1  0
 15 17  2  0
 22  5  1  0
 14  7  1  0
 21  9  1  0
 10 17  1  0
  6 22  1  0
 22 13  2  0
  6  3  2  0
 13 19  1  0
 18 20  1  0
 19  4  2  0
  8 23  1  0
  1 18  2  0
 23  9  1  0
  8 20  2  0
  8 15  1  0
 12 21  1  0
  7 24  1  0
 24 25  1  0
 24 26  1  0
 14 27  1  0
  2 28  1  0
  2 29  1  0
M  END
> <chembl_id>
CHEMBL3734786

$$$$

  SciTegic04091414352D

 37 41  0  0  0  0            999 V2000
   12.3682   -6.4390    0.0000 N   0  0
   12.3634   -5.6213    0.0000 C   0  0
   13.0691   -5.2084    0.0000 C   0  0
   13.7796   -5.6130    0.0000 C   0  0
   13.7844   -6.4307    0.0000 C   0  0
   13.0787   -6.8437    0.0000 C   0  0
   11.6625   -6.8520    0.0000 C   0  0
   11.6673   -7.6696    0.0000 O   0  0
   10.9520   -6.4473    0.0000 N   0  0
   14.4854   -5.2001    0.0000 C   0  0
   15.1959   -5.6048    0.0000 C   0  0
   15.9016   -5.1918    0.0000 O   0  0
    8.1291   -8.0992    0.0000 N   0  0
    7.4186   -7.6945    0.0000 C   0  0
    7.4138   -6.8768    0.0000 N   0  0
    8.1196   -6.4638    0.0000 C   0  0
    8.8301   -6.8685    0.0000 C   0  0
    9.5358   -6.4556    0.0000 C   0  0
   10.2463   -6.8602    0.0000 C   0  0
   10.2511   -7.6779    0.0000 C   0  0
    9.5453   -8.0909    0.0000 C   0  0
    8.8348   -7.6862    0.0000 C   0  0
   10.9616   -8.0826    0.0000 O   0  0
   10.5649  -10.1609    0.0000 O   0  0
   10.3077   -9.3847    0.0000 C   0  0
   10.9663   -8.9002    0.0000 C   0  0  2  0  0  0
   11.6307   -9.3770    0.0000 C   0  0
   11.3825  -10.1561    0.0000 C   0  0
    8.1148   -5.6462    0.0000 N   0  0
    7.4043   -5.2415    0.0000 C   0  0
    6.6986   -5.6545    0.0000 C   0  0
    5.9881   -5.2498    0.0000 C   0  0
    5.9833   -4.4321    0.0000 C   0  0
    6.6890   -4.0192    0.0000 C   0  0
    7.3995   -4.4239    0.0000 C   0  0
    5.2728   -4.0275    0.0000 F   0  0
    5.2823   -5.6628    0.0000 Cl  0  0
  1  2  1  0
  2  3  1  0
  3  4  1  0
  4  5  1  0
  5  6  1  0
  1  6  1  0
  7  8  2  0
  7  9  1  0
  1  7  1  0
 10 11  1  0
 11 12  1  0
  4 10  1  0
 13 14  1  0
 14 15  2  0
 15 16  1  0
 16 17  2  0
 17 18  1  0
 18 19  2  0
 19 20  1  0
 20 21  2  0
 21 22  1  0
 13 22  2  0
 17 22  1  0
 24 25  1  0
 25 26  1  0
 26 27  1  0
 27 28  1  0
 24 28  1  0
 26 23  1  1
 20 23  1  0
 30 31  1  0
 31 32  2  0
 32 33  1  0
 33 34  2  0
 34 35  1  0
 30 35  2  0
 33 36  1  0
 32 37  1  0
 29 30  1  0
 16 29  1  0
  9 19  1  0
M  END
> <chembl_id>
CHEMBL3092302

$$$$

  SciTegic12201615542D

 40 45  0  0  0  0            999 V2000
    6.3186   -5.7785    0.0000 C   0  0
    7.8068   -5.9728    0.0000 C   0  0
    5.7109   -6.5728    0.0000 O   0  0
    5.7419   -4.3930    0.0000 N   0  0
    4.2537   -4.1987    0.0000 C   0  0
    3.6753   -2.8147    0.0000 C   0  0
    2.1852   -2.6281    0.0000 C   0  0
    1.2781   -3.8165    0.0000 C   0  0
    1.8565   -5.2005    0.0000 C   0  0
    3.3443   -5.3916    0.0000 C   0  0
    2.5889    0.0182    0.0000 C   0  0
    1.7138   -1.2033    0.0000 N   0  0
    0.2917   -0.7475    0.0000 C   0  0
    0.2917    0.7475    0.0000 C   0  0
    1.7138    1.2033    0.0000 N   0  0
   -1.0028    1.5132    0.0000 C   0  0
   -2.3155    0.7475    0.0000 C   0  0
   -2.3155   -0.7475    0.0000 C   0  0
   -1.0028   -1.5132    0.0000 C   0  0
    4.0896    0.0290    0.0000 C   0  0
    4.9234    1.2700    0.0000 C   0  0
    4.7453   -1.3220    0.0000 N   0  0
    6.4199    1.1671    0.0000 N   0  0
    7.0791   -0.1803    0.0000 C   0  0
    6.2418   -1.4248    0.0000 C   0  0
    8.5825   -4.4945    0.0000 N   0  0
    7.2361   -5.1558    0.0000 N   0  0
    6.1911   -4.0797    0.0000 C   0  0
    6.9013   -2.7729    0.0000 C   0  0
    8.3696   -3.0096    0.0000 C   0  0
   12.6588   -6.3879    0.0000 N   0  0
   11.4526   -7.2796    0.0000 C   0  0
   10.0773   -6.6809    0.0000 C   0  0
    9.9095   -5.1953    0.0000 C   0  0
   11.1143   -4.2988    0.0000 C   0  0
   12.4896   -4.8975    0.0000 C   0  0
   13.7590   -6.8669    0.0000 C   0  0
    4.3957    2.3477    0.0000 N   0  0
    8.2679   -7.0807    0.0000 C   0  0
    0.0879   -3.6632    0.0000 F   0  0
  1  2  1  0
  1  3  2  0
  1  4  1  0
  5  6  1  0
  6  7  2  0
  7  8  1  0
  8  9  2  0
  9 10  1  0
  5 10  2  0
 11 12  1  0
 12 13  1  0
 13 14  1  0
 14 15  1  0
 11 15  2  0
 16 17  1  0
 17 18  2  0
 18 19  1  0
 13 19  2  0
 14 16  2  0
 20 21  1  0
 20 22  2  0
 21 23  2  0
 23 24  1  0
 24 25  2  0
 22 25  1  0
 26 27  1  0
 27 28  2  0
 28 29  1  0
 29 30  2  0
 26 30  1  0
 31 32  1  0
 32 33  1  0
 33 34  1  0
 34 35  1  0
 35 36  1  0
 31 36  1  0
 31 37  1  0
 26 34  1  0
 25 29  1  0
 21 38  1  0
 11 20  1  0
  7 12  1  0
  4  5  1  0
  2 39  2  0
  8 40  1  0
M  END
> <chembl_id>
CHEMBL3813756

$$$$

  SciTegic09081514162D

 45 49  0  0  0  0            999 V2000
    1.2990   -0.7500    0.0000 N   0  0
    1.2990    0.7500    0.0000 C   0  0
    0.0000    1.5000    0.0000 N   0  0
   -1.2990    0.7500    0.0000 C   0  0
   -1.2990   -0.7500    0.0000 C   0  0
    0.0000   -1.5000    0.0000 C   0  0
   -2.5973    1.5031    0.0000 O   0  0
    2.5972    1.5031    0.0000 N   0  0
    2.5951    3.0039    0.0000 C   0  0
   -3.8990    0.7562    0.0000 C   0  0
   -5.1976    1.5069    0.0000 C   0  0
   -6.4972    0.7578    0.0000 C   0  0
   -6.4981   -0.7422    0.0000 C   0  0
   -5.1996   -1.4931    0.0000 C   0  0
   -3.9001   -0.7439    0.0000 C   0  0
    3.8915    3.7585    0.0000 C   0  0
    3.8863    5.2585    0.0000 C   0  0
    2.5847    6.0040    0.0000 C   0  0
    1.2883    5.2495    0.0000 C   0  0
    1.2934    3.7495    0.0000 C   0  0
    2.5795    7.5047    0.0000 N   0  0
    3.8747    8.2614    0.0000 C   0  0
    3.8671    9.7614    0.0000 C   0  0
    2.5643   10.5048    0.0000 N   0  0
    1.2691    9.7483    0.0000 C   0  0
    1.2767    8.2483    0.0000 C   0  0
   -2.3383   -1.3500    0.0000 Cl  0  0
   -5.1975   -2.9939    0.0000 N   0  0
   -3.8972   -3.7433    0.0000 C   0  0
   -3.8950   -5.2441    0.0000 C   0  0
   -2.8586   -3.1422    0.0000 O   0  0
   -2.5947   -5.9935    0.0000 C   0  0
    2.5583   11.7048    0.0000 C   0  0
    5.1954    3.0153    0.0000 O   0  0
    6.2317    3.6204    0.0000 C   0  0
   -5.1940   -5.9960    0.0000 C   0  0
   -6.2326   -6.5971    0.0000 N   0  0
   -2.5926   -7.4944    0.0000 C   0  0
   -1.2941   -8.2453    0.0000 C   0  0
   -1.2950   -9.7453    0.0000 C   0  0
   -2.5945  -10.4944    0.0000 C   0  0
   -3.8931   -9.7436    0.0000 C   0  0
   -3.8921   -8.2436    0.0000 C   0  0
   -2.5955  -11.9953    0.0000 C   0  0
   -2.5962  -13.1953    0.0000 N   0  0
  1  2  2  0
  2  3  1  0
  3  4  2  0
  4  5  1  0
  5  6  2  0
  6  1  1  0
  4  7  1  0
  2  8  1  0
  8  9  1  0
  7 10  1  0
 10 11  2  0
 11 12  1  0
 12 13  2  0
 13 14  1  0
 14 15  2  0
 15 10  1  0
  9 16  2  0
 16 17  1  0
 17 18  2  0
 18 19  1  0
 19 20  2  0
 20  9  1  0
 21 22  1  0
 22 23  1  0
 23 24  1  0
 24 25  1  0
 25 26  1  0
 26 21  1  0
 18 21  1  0
  5 27  1  0
 14 28  1  0
 28 29  1  0
 29 30  1  0
 29 31  2  0
 30 32  2  0
 24 33  1  0
 16 34  1  0
 34 35  1  0
 30 36  1  0
 36 37  3  0
 32 38  1  0
 38 39  2  0
 39 40  1  0
 40 41  2  0
 41 42  1  0
 42 43  2  0
 43 38  1  0
 41 44  1  0
 44 45  3  0
M  END
> <chembl_id>
CHEMBL3425660

$$$$

  SciTegic09081514162D

 46 50  0  0  0  0            999 V2000
    1.2990   -0.7500    0.0000 N   0  0
    1.2990    0.7500    0.0000 C   0  0
    0.0000    1.5000    0.0000 N   0  0
   -1.2990    0.7500    0.0000 C   0  0
   -1.2990   -0.7500    0.0000 C   0  0
    0.0000   -1.5000    0.0000 C   0  0
   -2.5973    1.5031    0.0000 O   0  0
    2.5972    1.5031    0.0000 N   0  0
    2.5951    3.0039    0.0000 C   0  0
   -3.8990    0.7562    0.0000 C   0  0
   -5.1976    1.5069    0.0000 C   0  0
   -6.4972    0.7578    0.0000 C   0  0
   -6.4981   -0.7422    0.0000 C   0  0
   -5.1996   -1.4931    0.0000 C   0  0
   -3.9001   -0.7439    0.0000 C   0  0
    3.8915    3.7585    0.0000 C   0  0
    3.8863    5.2585    0.0000 C   0  0
    2.5847    6.0040    0.0000 C   0  0
    1.2883    5.2495    0.0000 C   0  0
    1.2934    3.7495    0.0000 C   0  0
    2.5795    7.5047    0.0000 N   0  0
    3.8747    8.2614    0.0000 C   0  0
    3.8671    9.7614    0.0000 C   0  0
    2.5643   10.5048    0.0000 N   0  0
    1.2691    9.7483    0.0000 C   0  0
    1.2767    8.2483    0.0000 C   0  0
   -2.3383   -1.3500    0.0000 Cl  0  0
   -5.1975   -2.9939    0.0000 N   0  0
   -3.8972   -3.7433    0.0000 C   0  0
   -3.8950   -5.2441    0.0000 C   0  0
   -2.8586   -3.1422    0.0000 O   0  0
   -2.5947   -5.9935    0.0000 C   0  0
    2.5583   11.7048    0.0000 C   0  0
    5.1954    3.0153    0.0000 O   0  0
    6.2317    3.6204    0.0000 C   0  0
   -5.1924   -5.9986    0.0000 C   0  0
   -2.5926   -7.4944    0.0000 C   0  0
   -1.2941   -8.2453    0.0000 C   0  0
   -1.2950   -9.7453    0.0000 C   0  0
   -2.5945  -10.4944    0.0000 C   0  0
   -3.8931   -9.7436    0.0000 C   0  0
   -3.8921   -8.2436    0.0000 C   0  0
   -5.1894   -7.1986    0.0000 F   0  0
   -6.2301   -6.6014    0.0000 F   0  0
   -6.2334   -5.4016    0.0000 F   0  0
   -2.5953  -11.6944    0.0000 F   0  0
  1  2  2  0
  2  3  1  0
  3  4  2  0
  4  5  1  0
  5  6  2  0
  6  1  1  0
  4  7  1  0
  2  8  1  0
  8  9  1  0
  7 10  1  0
 10 11  2  0
 11 12  1  0
 12 13  2  0
 13 14  1  0
 14 15  2  0
 15 10  1  0
  9 16  2  0
 16 17  1  0
 17 18  2  0
 18 19  1  0
 19 20  2  0
 20  9  1  0
 21 22  1  0
 22 23  1  0
 23 24  1  0
 24 25  1  0
 25 26  1  0
 26 21  1  0
 18 21  1  0
  5 27  1  0
 14 28  1  0
 28 29  1  0
 29 30  1  0
 29 31  2  0
 30 32  2  0
 24 33  1  0
 16 34  1  0
 34 35  1  0
 30 36  1  0
 32 37  1  0
 37 38  2  0
 38 39  1  0
 39 40  2  0
 40 41  1  0
 41 42  2  0
 42 37  1  0
 36 43  1  0
 36 44  1  0
 36 45  1  0
 40 46  1  0
M  END
> <chembl_id>
CHEMBL3425668

$$$$

  SciTegic02271217242D

 24 27  0  0  0  0            999 V2000
   -2.9378   -1.9402    0.0000 N   0  0
   -2.2213   -1.5269    0.0000 C   0  0
   -2.2242   -0.6963    0.0000 N   0  0
   -2.9396   -0.2872    0.0000 C   0  0
   -3.6526   -1.5273    0.0000 C   0  0
   -3.6513   -0.6984    0.0000 C   0  0
   -4.4393   -0.4411    0.0000 N   0  0
   -4.9276   -1.1110    0.0000 C   0  0
   -4.4413   -1.7822    0.0000 C   0  0
   -2.9414    0.5378    0.0000 N   0  0
   -2.2278    0.9519    0.0000 C   0  0
   -1.5156    0.5380    0.0000 C   0  0
   -0.8025    0.9514    0.0000 C   0  0
   -0.8038    1.7772    0.0000 C   0  0
   -1.5242    2.1880    0.0000 C   0  0
   -2.2344    1.7723    0.0000 C   0  0
   -0.0873    0.5401    0.0000 Cl  0  0
   -0.0908    2.1923    0.0000 O   0  0
    0.6251    1.7823    0.0000 C   0  0
    0.6251    0.9572    0.0000 C   0  0
    1.3402    0.5473    0.0000 C   0  0
    2.0542    0.9624    0.0000 C   0  0
    2.0486    1.7917    0.0000 C   0  0
    1.3330    2.1978    0.0000 C   0  0
  1  2  2  0
 11 12  2  0
  5  1  1  0
 12 13  1  0
  2  3  1  0
 13 14  2  0
 14 15  1  0
  3  4  2  0
 15 16  2  0
 16 11  1  0
  6  7  1  0
 13 17  1  0
  7  8  1  0
 14 18  1  0
  8  9  2  0
 18 19  1  0
  9  5  1  0
 19 20  2  0
  4  6  1  0
 20 21  1  0
  4 10  1  0
 21 22  2  0
  5  6  2  0
 22 23  1  0
 10 11  1  0
 23 24  2  0
 24 19  1  0
M  END
> <chembl_id>
CHEMBL1922897

$$$$

  SciTegic12201616162D

 39 43  0  0  0  0            999 V2000
    3.8942   -1.4964    0.0000 N   0  0
    5.1929   -0.7441    0.0000 C   0  0
    5.1908    0.4559    0.0000 S   0  0
    6.4942   -1.4919    0.0000 N   0  0
    7.7928   -0.7396    0.0000 C   0  0
    9.0941   -1.4873    0.0000 C   0  0
   12.9858    0.7740    0.0000 C   0  0
   12.9909   -0.7260    0.0000 C   0  0
   11.6945   -1.4805    0.0000 C   0  0
   10.3928   -0.7351    0.0000 N   0  0
   10.3877    0.7650    0.0000 C   0  0
   11.6841    1.5195    0.0000 C   0  0
   -1.2964    1.4973    0.0000 N   0  0
   -2.6111    0.7486    0.0000 C   0  0
   -2.6111   -0.7486    0.0000 N   0  0
   -1.2964   -1.4973    0.0000 C   0  0
    0.0000   -0.7486    0.0000 C   0  0
    1.2964   -1.4973    0.0000 C   0  0
    2.5929   -0.7486    0.0000 C   0  0
    2.5929    0.7486    0.0000 C   0  0
    1.2964    1.4973    0.0000 C   0  0
    0.0000    0.7486    0.0000 C   0  0
   -1.2907   -2.9981    0.0000 N   0  0
   -2.5870   -3.7544    0.0000 C   0  0
   -2.5835   -5.2544    0.0000 C   0  0
   -3.8807   -6.0076    0.0000 C   0  0
   -5.1815   -5.2608    0.0000 C   0  0
   -5.1852   -3.7608    0.0000 C   0  0
   -3.8880   -3.0076    0.0000 C   0  0
   -6.4810   -6.0117    0.0000 O   0  0
   -7.7815   -5.2626    0.0000 C   0  0
   -9.0810   -6.0135    0.0000 C   0  0
  -10.3819   -5.2667    0.0000 C   0  0
  -11.6791   -6.0199    0.0000 C   0  0
  -11.6755   -7.5199    0.0000 C   0  0
  -10.3746   -8.2667    0.0000 C   0  0
   -9.0774   -7.5136    0.0000 C   0  0
  -12.7198   -5.4224    0.0000 F   0  0
   -3.8777   -7.2076    0.0000 Cl  0  0
  1  2  1  0
  2  3  2  0
  2  4  1  0
  5  6  1  0
  7  8  1  0
  8  9  1  0
  9 10  1  0
 10 11  1  0
 11 12  1  0
  7 12  1  0
  6 10  1  0
  4  5  1  0
 13 14  1  0
 14 15  2  0
 15 16  1  0
 16 17  2  0
 17 18  1  0
 18 19  2  0
 19 20  1  0
 20 21  2  0
 21 22  1  0
 13 22  2  0
 17 22  1  0
 24 25  1  0
 25 26  2  0
 26 27  1  0
 27 28  2  0
 28 29  1  0
 24 29  2  0
 31 32  1  0
 32 33  1  0
 33 34  2  0
 34 35  1  0
 35 36  2  0
 36 37  1  0
 32 37  2  0
 34 38  1  0
 30 31  1  0
 27 30  1  0
 26 39  1  0
 23 24  1  0
 16 23  1  0
  1 19  1  0
M  END
> <chembl_id>
CHEMBL3814940

$$$$

  SciTegic04091414352D

 34 37  0  0  0  0            999 V2000
    8.8011   -5.8020    0.0000 N   0  0
    9.5096   -6.2102    0.0000 C   0  0
    9.5104   -7.0278    0.0000 O   0  0
   10.2174   -5.8007    0.0000 N   0  0
   10.9237   -6.2059    0.0000 C   0  0
   11.6296   -5.7949    0.0000 C   0  0
   12.3408   -6.2039    0.0000 C   0  0
   13.0467   -5.7930    0.0000 O   0  0
   13.7518   -6.1984    0.0000 C   0  0
    5.9702   -7.4399    0.0000 N   0  0
    5.2617   -7.0318    0.0000 C   0  0
    5.2609   -6.2141    0.0000 N   0  0
    5.9686   -5.8046    0.0000 C   0  0
    6.6771   -6.2128    0.0000 C   0  0
    7.3849   -5.8033    0.0000 C   0  0
    8.0934   -6.2115    0.0000 C   0  0
    8.0941   -7.0291    0.0000 C   0  0
    7.3864   -7.4386    0.0000 C   0  0
    6.6779   -7.0305    0.0000 C   0  0
    8.8026   -7.4373    0.0000 O   0  0
    8.3957   -9.5136    0.0000 O   0  0
    8.1423   -8.7362    0.0000 C   0  0
    8.8034   -8.2550    0.0000 C   0  0  2  0  0  0
    9.4653   -8.7350    0.0000 C   0  0
    9.2134   -9.5129    0.0000 C   0  0
    5.9679   -4.9869    0.0000 N   0  0
    5.2594   -4.5788    0.0000 C   0  0
    4.5516   -4.9883    0.0000 C   0  0
    3.8431   -4.5801    0.0000 C   0  0
    3.8424   -3.7624    0.0000 C   0  0
    4.5501   -3.3529    0.0000 C   0  0
    5.2586   -3.7611    0.0000 C   0  0
    3.1339   -3.3542    0.0000 F   0  0
    3.1354   -4.9896    0.0000 Cl  0  0
  1  2  1  0
  2  3  2  0
  2  4  1  0
  5  6  1  0
  6  7  1  0
  8  9  1  0
  7  8  1  0
  4  5  1  0
 10 11  1  0
 11 12  2  0
 12 13  1  0
 13 14  2  0
 14 15  1  0
 15 16  2  0
 16 17  1  0
 17 18  2  0
 18 19  1  0
 10 19  2  0
 14 19  1  0
 21 22  1  0
 22 23  1  0
 23 24  1  0
 24 25  1  0
 21 25  1  0
 23 20  1  1
 17 20  1  0
 27 28  1  0
 28 29  2  0
 29 30  1  0
 30 31  2  0
 31 32  1  0
 27 32  2  0
 30 33  1  0
 29 34  1  0
 26 27  1  0
 13 26  1  0
  1 16  1  0
M  END
> <chembl_id>
CHEMBL3092311

$$$$

  SciTegic06051313552D

 25 28  0  0  0  0            999 V2000
    8.2861   -3.1573    0.0000 C   0  0
    8.2849   -3.9768    0.0000 C   0  0
    8.9930   -4.3858    0.0000 C   0  0
    9.7026   -3.9764    0.0000 C   0  0
    9.6998   -3.1536    0.0000 C   0  0
    8.9912   -2.7484    0.0000 C   0  0
   10.3805   -2.7015    0.0000 C   0  0
   11.1477   -2.9827    0.0000 C   0  0
   11.6523   -2.3399    0.0000 C   0  0
   11.1964   -1.6619    0.0000 N   0  0
   10.4108   -1.8849    0.0000 N   0  0
   11.6019   -0.9525    0.0000 C   0  0
   12.4191   -0.9490    0.0000 N   0  0
   11.1903   -0.2465    0.0000 S   0  0
   12.4668   -2.3700    0.0000 C   0  0
   13.7128   -1.7067    0.0000 C   0  0
   12.8982   -1.6799    0.0000 C   0  0
   14.0995   -2.4314    0.0000 C   0  0
   13.6638   -3.1219    0.0000 C   0  0
   12.8488   -3.0909    0.0000 C   0  0
   12.4163   -3.7802    0.0000 C   0  0
   12.7977   -4.5009    0.0000 C   0  0
   13.6160   -4.5280    0.0000 C   0  0
   14.0448   -3.8380    0.0000 C   0  0
    7.5769   -4.3849    0.0000 F   0  0
  1  2  2  0
  2  3  1  0
  3  4  2  0
  4  5  1  0
  5  6  2  0
  6  1  1  0
  7  8  1  0
  8  9  1  0
  9 10  1  0
 10 11  1  0
 11  7  2  0
  5  7  1  0
 10 12  1  0
 12 13  1  0
 12 14  2  0
 15 20  2  0
 18 16  1  0
 16 17  2  0
 17 15  1  0
  9 15  1  0
 18 19  2  0
 19 20  1  0
 20 21  1  0
 21 22  2  0
 22 23  1  0
 23 24  2  0
 24 19  1  0
  2 25  1  0
M  END
> <chembl_id>
CHEMBL2325103

$$$$

  SciTegic06061310022D

 43 49  0  0  0  0            999 V2000
    9.8257   -7.7294    0.0000 N   0  0
   10.3777   -8.3425    0.0000 C   0  0
   10.1228   -9.1271    0.0000 N   0  0
    9.0187   -7.9009    0.0000 C   0  0
    8.7638   -8.6856    0.0000 C   0  0
    9.3158   -9.2987    0.0000 C   0  0
    8.9033  -10.0131    0.0000 N   0  0
    8.0964   -9.8416    0.0000 N   0  0
    8.0101   -9.0211    0.0000 C   0  0
    8.4667   -7.2878    0.0000 N   0  0
    7.2957   -8.6086    0.0000 C   0  0
    6.5812   -9.0211    0.0000 C   0  0
    6.5812   -7.3711    0.0000 C   0  0
    7.2957   -7.7836    0.0000 C   0  0
    9.2389  -10.7668    0.0000 C   0  0  1  0  0  0
   10.0594  -10.8530    0.0000 C   0  0
   10.3949  -11.6067    0.0000 C   0  0
    9.9100  -12.2741    0.0000 C   0  0  1  0  0  0
    9.0895  -12.1879    0.0000 C   0  0
    8.7540  -11.4342    0.0000 C   0  0
   10.2456  -13.0278    0.0000 N   0  0
   11.0661  -13.1141    0.0000 C   0  0
   11.4016  -13.8677    0.0000 C   0  0
   10.9167  -14.5352    0.0000 N   0  0
   10.0962  -14.4489    0.0000 C   0  0
    9.7606  -13.6953    0.0000 C   0  0
    5.8667   -7.7836    0.0000 C   0  0
    5.8667   -8.6086    0.0000 C   0  0
    5.0821   -8.8636    0.0000 N   0  0
    4.5972   -8.1961    0.0000 C   0  0
    5.0821   -7.5287    0.0000 N   0  0
    3.7722   -8.1961    0.0000 C   0  0
    3.3597   -7.4816    0.0000 C   0  0
    2.5347   -7.4816    0.0000 C   0  0
    2.1222   -6.7672    0.0000 C   0  0
    2.5347   -6.0527    0.0000 C   0  0
    3.3597   -6.0527    0.0000 C   0  0
    3.7722   -6.7672    0.0000 C   0  0
    4.5972   -6.7672    0.0000 O   0  0
    5.0097   -6.0527    0.0000 C   0  0
   11.2522  -15.2888    0.0000 C   0  0
   12.0727  -15.3751    0.0000 C   0  0
   10.7673  -15.9563    0.0000 O   0  0
 19 20  1  0
 15  7  1  1
 21 22  1  0
  4  1  1  0
  4 10  1  0
  5  6  1  0
 11 12  2  0
 12 28  1  0
 21 26  1  0
 22 23  1  0
 23 24  1  0
 24 25  1  0
 25 26  1  0
 18 21  1  6
 27 28  2  0
  2  3  1  0
 27 13  1  0
  3  6  2  0
 13 14  2  0
 14 11  1  0
 28 29  1  0
 29 30  1  0
 30 31  2  0
 31 27  1  0
  9 11  1  0
 30 32  1  0
 15 16  1  0
 32 33  1  0
  1  2  2  0
 33 34  2  0
  5  4  2  0
 34 35  1  0
  6  7  1  0
 35 36  2  0
  7  8  1  0
 36 37  1  0
  8  9  2  0
 37 38  2  0
 38 33  1  0
  9  5  1  0
 38 39  1  0
 15 20  1  0
 39 40  1  0
 16 17  1  0
 24 41  1  0
 17 18  1  0
 41 42  1  0
 18 19  1  0
 41 43  2  0
M  END
> <chembl_id>
CHEMBL452717

$$$$

  SciTegic04191617032D

 39 43  0  0  0  0            999 V2000
    4.6488    1.8163    0.0000 C   0  0
    6.1174    2.1217    0.0000 C   0  0
    6.5873    3.5462    0.0000 N   0  0
    5.5886    4.6654    0.0000 C   0  0
    4.1200    4.3600    0.0000 N   0  0
    3.6500    2.9355    0.0000 C   0  0
    6.0558    6.0916    0.0000 O   0  0
    5.0549    7.2100    0.0000 C   0  0
    2.1812    2.6271    0.0000 N   0  0
    1.7138    1.2033    0.0000 C   0  0
    1.7138   -1.2033    0.0000 N   0  0
    2.5889    0.0182    0.0000 N   0  0
    0.2917   -0.7475    0.0000 C   0  0
    0.2917    0.7475    0.0000 C   0  0
   -1.0028    1.5132    0.0000 C   0  0
   -2.3155    0.7475    0.0000 C   0  0
   -2.3155   -0.7475    0.0000 C   0  0
   -1.0028   -1.5132    0.0000 C   0  0
    5.5198    8.6362    0.0000 C   0  0
    4.5172    9.7519    0.0000 C   0  0
    3.0497    9.4415    0.0000 C   0  0
    2.5848    8.0154    0.0000 C   0  0
    3.5873    6.8996    0.0000 C   0  0
    1.1170    7.7018    0.0000 N   0  0
    0.6539    6.2742    0.0000 C   0  0
   -0.8138    5.9606    0.0000 C   0  0
   -1.2770    4.5331    0.0000 C   0  0
    1.4575    5.3830    0.0000 O   0  0
    7.1166    1.0019    0.0000 N   0  0
    6.6491   -0.4234    0.0000 C   0  0
    7.6496   -1.5410    0.0000 C   0  0
    9.1177   -1.2333    0.0000 N   0  0
    9.5853    0.1919    0.0000 C   0  0
    8.5848    1.3095    0.0000 C   0  0
    9.9181   -2.1274    0.0000 C   0  0
   -2.7447    4.2195    0.0000 C   0  0
   -3.2079    2.7919    0.0000 N   0  0
   -4.3814    2.5412    0.0000 C   0  0
   -2.4043    1.9007    0.0000 C   0  0
  1  2  2  0
  2  3  1  0
  3  4  2  0
  4  5  1  0
  5  6  2  0
  6  1  1  0
  4  7  1  0
  7  8  1  0
  6  9  1  0
  9 10  1  0
 10 14  1  0
 13 11  1  0
 11 12  1  0
 12 10  2  0
 13 14  2  0
 14 15  1  0
 15 16  2  0
 16 17  1  0
 17 18  2  0
 18 13  1  0
  8 19  2  0
 19 20  1  0
 20 21  2  0
 21 22  1  0
 22 23  2  0
 23  8  1  0
 22 24  1  0
 24 25  1  0
 25 26  1  0
 26 27  2  0
 25 28  2  0
  2 29  1  0
 29 30  1  0
 29 34  1  0
 30 31  1  0
 31 32  1  0
 32 33  1  0
 33 34  1  0
 32 35  1  0
 27 36  1  0
 36 37  1  0
 37 38  1  0
 37 39  1  0
M  END
> <chembl_id>
CHEMBL3604939

$$$$

  SciTegic12201610262D

 27 30  0  0  0  0            999 V2000
    1.9770    6.4658    0.0000 C   0  0
    2.2933    4.9987    0.0000 C   0  0
    2.9661    7.5576    0.0000 C   0  0
    3.7017    4.5125    0.0000 N   0  0
    1.3859    3.8575    0.0000 C   0  0
    2.2172    8.8604    0.0000 N   0  0
    2.2115    2.6132    0.0000 C   0  0
    0.6075    7.0612    0.0000 C   0  0
    3.6501    3.0201    0.0000 C   0  0
    0.7567    8.5488    0.0000 C   0  0
    4.1592    7.4292    0.0000 O   0  0
   -0.1107    3.9324    0.0000 N   0  0
    1.8270    1.1592    0.0000 C   0  0
   -0.7569    6.4285    0.0000 C   0  0
    4.7393    1.9829    0.0000 C   0  0
   -0.4548    9.4399    0.0000 C   0  0
    2.9211    0.1044    0.0000 C   0  0
   -1.9866    7.3214    0.0000 C   0  0
    4.3597    0.5113    0.0000 C   0  0
   -1.8374    8.8090    0.0000 C   0  0
   -0.7624    2.9248    0.0000 O   0  0
   -3.3601    6.7164    0.0000 N   0  0
   -4.5712    7.6028    0.0000 C   0  0
   -4.4413    8.7957    0.0000 O   0  0
   -5.9448    6.9980    0.0000 C   0  0
   -7.1559    7.8843    0.0000 C   0  0
   -8.2542    7.4007    0.0000 C   0  0
  2  1  2  0
  3  1  1  0
  4  2  1  0
  5  2  1  0
  6  3  1  0
  7  5  1  0
  8  1  1  0
  9  4  1  0
 10  8  2  0
 11  3  2  0
 12  5  2  0
 13  7  2  0
 14  8  1  0
 15  9  2  0
 16 10  1  0
 17 13  1  0
 18 14  2  0
 19 15  1  0
 20 18  1  0
  6 10  1  0
  7  9  1  0
 16 20  2  0
 17 19  2  0
 12 21  1  0
 18 22  1  0
 22 23  1  0
 23 24  2  0
 23 25  1  0
 25 26  1  0
 26 27  1  0
M  END
> <chembl_id>
CHEMBL3799585

$$$$

  SciTegic04071410272D

 40 46  0  0  0  0            999 V2000
   12.7200   -2.0782    0.0000 C   0  0
   12.1681   -2.6909    0.0000 C   0  0
   12.4201   -3.4735    0.0000 C   0  0
   13.7817   -3.0366    0.0000 C   0  0
   13.5294   -2.2478    0.0000 C   0  0
   12.9259   -5.0449    0.0000 C   0  0
   13.1748   -5.8283    0.0000 C   0  0
   13.9812   -6.0073    0.0000 N   0  0
   14.5382   -5.3967    0.0000 C   0  0
   14.2888   -4.6068    0.0000 C   0  0
   14.2302   -6.7945    0.0000 C   0  0
   12.4638   -1.2934    0.0000 N   0  0
   10.2518   -0.2168    0.0000 N   0  0
   10.2506   -1.0405    0.0000 C   0  0
   10.9702   -1.4537    0.0000 N   0  0
   10.9684    0.1963    0.0000 C   0  0
   11.6801   -0.2132    0.0000 C   0  0
   11.6809   -1.0406    0.0000 C   0  0
   12.9500   -0.6298    0.0000 N   0  0
   12.4658    0.0408    0.0000 C   0  0
   12.8769    0.7561    0.0000 C   0  0
   13.7033    0.7542    0.0000 C   0  0
   14.1144    1.4694    0.0000 C   0  0
   13.7000    2.1844    0.0000 C   0  0
   12.8701    2.1799    0.0000 C   0  0
   12.4627    1.4642    0.0000 C   0  0
   14.1102    2.9008    0.0000 N   0  0
   14.9358    2.9038    0.0000 C   0  0
   15.4229    2.2429    0.0000 O   0  0
   15.4182    3.5787    0.0000 N   0  0
   16.2044    3.3264    0.0000 C   0  0
   16.2052    2.5037    0.0000 C   0  0
   16.9169    2.0946    0.0000 C   0  0
   17.6285    2.5074    0.0000 C   0  0
   17.6238    3.3333    0.0000 C   0  0
   16.9114    3.7385    0.0000 C   0  0
   16.9186    1.2690    0.0000 Cl  0  0
   10.9680    1.0218    0.0000 N   0  0
   13.4791   -4.4357    0.0000 C   0  0
   13.2271   -3.6494    0.0000 N   0  0
  2  3  1  0
  3 40  1  0
 40  4  1  0
 39 10  1  0
 18 12  1  0
 12 19  1  0
 19 20  2  0
 20 17  1  0
  6  7  1  0
 20 21  1  0
  7  8  1  0
 21 22  2  0
  8  9  1  0
 22 23  1  0
  9 10  1  0
 23 24  2  0
  4  5  1  0
 24 25  1  0
  8 11  1  0
 25 26  2  0
 26 21  1  0
  1  2  1  0
 24 27  1  0
  1 12  1  0
 27 28  1  0
 28 29  1  0
 40 39  1  0
 39  6  1  0
 29 32  1  0
 31 30  1  0
 30 28  2  0
 13 14  2  0
 31 32  2  0
 14 15  1  0
 32 33  1  0
 15 18  2  0
 33 34  2  0
  1  5  1  0
 34 35  1  0
 17 16  2  0
 35 36  2  0
 36 31  1  0
 16 13  1  0
 33 37  1  0
 17 18  1  0
 16 38  1  0
M  END
> <chembl_id>
CHEMBL1258231

$$$$

  SciTegic10311316282D

 36 40  0  0  0  0            999 V2000
   26.5196  -16.8964    0.0000 N   0  0
   26.5195  -17.7237    0.0000 C   0  0
   27.2348  -18.1357    0.0000 N   0  0
   27.2309  -16.4827    0.0000 C   0  0
   27.9468  -16.8909    0.0000 C   0  0
   27.9481  -17.7174    0.0000 C   0  0
   28.7346  -17.9715    0.0000 N   0  0
   29.2193  -17.3021    0.0000 C   0  0
   28.7325  -16.6343    0.0000 C   0  0
   28.9948  -18.7578    0.0000 C   0  0
   28.5110  -19.4260    0.0000 C   0  0
   28.9970  -20.0927    0.0000 C   0  0
   29.7812  -19.8365    0.0000 C   0  0
   29.7798  -19.0116    0.0000 C   0  0
   27.2274  -15.6577    0.0000 N   0  0
   28.9863  -15.8493    0.0000 C   0  0
   29.7930  -15.6766    0.0000 C   0  0
   28.4333  -15.2371    0.0000 O   0  0
   30.3400  -16.2901    0.0000 C   0  0
   31.1461  -16.1179    0.0000 C   0  0
   31.4005  -15.3322    0.0000 C   0  0
   30.8427  -14.7185    0.0000 C   0  0
   30.0387  -14.8940    0.0000 C   0  0
   31.0936  -13.9326    0.0000 N   0  0
   31.8997  -13.7570    0.0000 C   0  0
   32.1507  -12.9711    0.0000 N   0  0
   32.4548  -14.3673    0.0000 O   0  0
   32.9568  -12.7955    0.0000 C   0  0
   33.5094  -13.4066    0.0000 C   0  0
   34.3148  -13.2315    0.0000 C   0  0
   34.5665  -12.4449    0.0000 C   0  0
   34.0065  -11.8332    0.0000 C   0  0
   33.2032  -12.0115    0.0000 C   0  0
   32.6455  -11.4036    0.0000 O   0  0
   34.8697  -13.8421    0.0000 C   0  0
   32.8931  -10.6166    0.0000 C   0  0
  1  2  2  0
  2  3  1  0
  3  6  2  0
  5  4  2  0
  4  1  1  0
  5  6  1  0
  6  7  1  0
  7  8  1  0
  8  9  2  0
  9  5  1  0
 10 11  1  0
 11 12  1  0
 12 13  1  0
 13 14  1  0
 14 10  1  0
  7 10  1  0
  4 15  1  0
  9 16  1  0
 16 17  1  0
 16 18  2  0
 17 19  2  0
 19 20  1  0
 20 21  2  0
 21 22  1  0
 22 23  2  0
 23 17  1  0
 22 24  1  0
 24 25  1  0
 25 26  1  0
 25 27  2  0
 26 28  1  0
 28 29  2  0
 29 30  1  0
 30 31  2  0
 31 32  1  0
 32 33  2  0
 33 28  1  0
 33 34  1  0
 30 35  1  0
 34 36  1  0
M  END
> <chembl_id>
CHEMBL2387001

$$$$

  SciTegic04091414152D

 40 45  0  0  0  0            999 V2000
   20.7222   -5.9855    0.0000 N   0  0
   20.0259   -5.5377    0.0000 C   0  0
   19.2973   -5.9170    0.0000 C   0  0
   19.2591   -6.7415    0.0000 N   0  0
   19.9557   -7.1852    0.0000 C   0  0
   20.6906   -6.8045    0.0000 C   0  0
   18.5268   -7.1215    0.0000 C   0  0
   22.8697   -2.2750    0.0000 N   0  0
   22.8686   -3.1024    0.0000 C   0  0
   23.5833   -3.5152    0.0000 N   0  0
   23.5816   -1.8623    0.0000 C   0  0
   24.2970   -2.2713    0.0000 C   0  0
   24.2977   -3.0982    0.0000 C   0  0
   25.0131   -3.5092    0.0000 N   0  0
   25.7281   -3.0944    0.0000 C   0  0
   25.7233   -2.2645    0.0000 N   0  0
   25.0074   -1.8572    0.0000 C   0  0
   22.1538   -3.5143    0.0000 N   0  0
   26.4441   -3.5041    0.0000 O   0  0
   26.4353   -1.8476    0.0000 C   0  0
   22.1531   -4.3393    0.0000 C   0  0
   21.4382   -4.7497    0.0000 C   0  0
   21.4372   -5.5739    0.0000 C   0  0
   22.1519   -5.9879    0.0000 C   0  0
   22.8691   -5.5715    0.0000 C   0  0
   22.8665   -4.7486    0.0000 C   0  0
   25.0148   -4.3342    0.0000 C   0  0  1  0  0  0
   24.3506   -4.8199    0.0000 C   0  0
   24.6071   -5.6040    0.0000 C   0  0
   25.4323   -5.6023    0.0000 N   0  0
   25.6854   -4.8172    0.0000 C   0  0
   25.8395   -6.3199    0.0000 C   0  0
   25.4221   -7.0315    0.0000 C   0  0
   26.6644   -6.3257    0.0000 O   0  0
   25.8296   -7.7488    0.0000 C   0  0
   27.1496   -2.2585    0.0000 C   0  0
   27.8595   -1.8452    0.0000 C   0  0
   27.8586   -1.0198    0.0000 C   0  0
   27.1419   -0.6095    0.0000 C   0  0
   26.4258   -1.0245    0.0000 C   0  0
  1  2  1  0
  1  6  1  0
  2  3  1  0
  3  4  1  0
  4  5  1  0
  5  6  1  0
  4  7  1  0
  8  9  2  0
  9 10  1  0
 10 13  2  0
 12 11  2  0
 11  8  1  0
 12 13  1  0
 13 14  1  0
 14 15  1  0
 15 16  1  0
 16 17  1  0
 17 12  1  0
  9 18  1  0
 15 19  2  0
 16 20  1  0
 18 21  1  0
 21 22  2  0
 22 23  1  0
 23 24  2  0
 24 25  1  0
 25 26  2  0
 26 21  1  0
 27 14  1  6
 27 28  1  0
 28 29  1  0
 29 30  1  0
 30 31  1  0
 31 27  1  0
 30 32  1  0
 32 33  1  0
 32 34  2  0
 33 35  2  0
 20 36  2  0
 20 40  1  0
 36 37  1  0
 37 38  2  0
 38 39  1  0
 39 40  2  0
 23  1  1  0
M  END
> <chembl_id>
CHEMBL3087195

$$$$

  SciTegic12161612032D

 33 37  0  0  0  0            999 V2000
   -2.5978    1.5002    0.0000 N   0  0
   -3.8968    0.7501    0.0000 C   0  0
   -3.8968   -0.7501    0.0000 N   0  0
   -2.5978   -1.5002    0.0000 C   0  0
   -1.2989   -0.7501    0.0000 C   0  0
    0.0000   -1.5002    0.0000 C   0  0
    1.2806   -0.7501    0.0000 C   0  0
    1.2806    0.7501    0.0000 C   0  0
    0.0000    1.5002    0.0000 C   0  0
   -1.2989    0.7501    0.0000 C   0  0
    2.5978    1.5002    0.0000 O   0  0
    2.5978   -1.5002    0.0000 N   0  0
    3.8968   -0.7501    0.0000 C   0  0
    3.8968    0.7501    0.0000 C   0  0
    4.9360   -1.3500    0.0000 O   0  0
    2.6098   -3.0009    0.0000 C   0  0
    3.9150   -3.7418    0.0000 C   0  0
    3.9270   -5.2425    0.0000 C   0  0
    7.8444   -7.4589    0.0000 O   0  0
    6.5525   -8.2211    0.0000 C   0  0
    5.2464   -7.4833    0.0000 C   0  0
    5.2323   -5.9834    0.0000 N   0  0
    6.5243   -5.2212    0.0000 C   0  0
    7.8303   -5.9590    0.0000 C   0  0
   -2.6009   -3.0010    0.0000 N   0  0
   -3.9017   -3.7496    0.0000 C   0  0
   -3.9070   -5.2496    0.0000 C   0  0
   -5.2086   -5.9951    0.0000 C   0  0
   -6.5051   -5.2406    0.0000 C   0  0
   -6.4999   -3.7406    0.0000 C   0  0
   -5.1983   -2.9951    0.0000 C   0  0
   -5.2138   -7.4959    0.0000 C   0  0
   -5.2180   -8.6959    0.0000 C   0  0
  1  2  1  0
  2  3  2  0
  3  4  1  0
  4  5  2  0
  5  6  1  0
  6  7  2  0
  7  8  1  0
  8  9  2  0
  9 10  1  0
  1 10  2  0
  5 10  1  0
 12 13  1  0
 13 14  1  0
 11 14  1  0
  7 12  1  0
  8 11  1  0
 13 15  2  0
 16 17  1  0
 17 18  1  0
 19 20  1  0
 20 21  1  0
 21 22  1  0
 22 23  1  0
 23 24  1  0
 19 24  1  0
 18 22  1  0
 12 16  1  0
 26 27  1  0
 27 28  2  0
 28 29  1  0
 29 30  2  0
 30 31  1  0
 26 31  2  0
 32 33  3  0
 28 32  1  0
 25 26  1  0
  4 25  1  0
M  END
> <chembl_id>
CHEMBL3774926

$$$$

  SciTegic12201616162D

 40 44  0  0  0  0            999 V2000
    3.8942   -1.4964    0.0000 N   0  0
    5.1929   -0.7441    0.0000 C   0  0
    5.1908    0.4559    0.0000 S   0  0
    6.4942   -1.4919    0.0000 N   0  0
    7.7928   -0.7396    0.0000 C   0  0
    9.0941   -1.4873    0.0000 C   0  0
   10.3928   -0.7351    0.0000 C   0  0
   14.2923   -2.9828    0.0000 O   0  0
   14.2923   -1.4828    0.0000 C   0  0
   12.9932   -0.7328    0.0000 C   0  0
   11.6941   -1.4828    0.0000 N   0  0
   11.6942   -2.9829    0.0000 C   0  0
   12.9933   -3.7328    0.0000 C   0  0
   -1.2964    1.4973    0.0000 N   0  0
   -2.6111    0.7486    0.0000 C   0  0
   -2.6111   -0.7486    0.0000 N   0  0
   -1.2964   -1.4973    0.0000 C   0  0
    0.0000   -0.7486    0.0000 C   0  0
    1.2964   -1.4973    0.0000 C   0  0
    2.5929   -0.7486    0.0000 C   0  0
    2.5929    0.7486    0.0000 C   0  0
    1.2964    1.4973    0.0000 C   0  0
    0.0000    0.7486    0.0000 C   0  0
   -1.2907   -2.9981    0.0000 N   0  0
   -2.5870   -3.7544    0.0000 C   0  0
   -2.5835   -5.2544    0.0000 C   0  0
   -3.8807   -6.0076    0.0000 C   0  0
   -5.1815   -5.2608    0.0000 C   0  0
   -5.1852   -3.7608    0.0000 C   0  0
   -3.8880   -3.0076    0.0000 C   0  0
   -6.4810   -6.0117    0.0000 O   0  0
   -7.7815   -5.2626    0.0000 C   0  0
   -9.0810   -6.0135    0.0000 C   0  0
  -10.3819   -5.2667    0.0000 C   0  0
  -11.6791   -6.0199    0.0000 C   0  0
  -11.6755   -7.5199    0.0000 C   0  0
  -10.3746   -8.2667    0.0000 C   0  0
   -9.0774   -7.5136    0.0000 C   0  0
  -12.7198   -5.4224    0.0000 F   0  0
   -3.8777   -7.2076    0.0000 Cl  0  0
  1  2  1  0
  2  3  2  0
  2  4  1  0
  5  6  1  0
  6  7  1  0
  8  9  1  0
  9 10  1  0
 10 11  1  0
 11 12  1  0
 12 13  1  0
  8 13  1  0
  7 11  1  0
  4  5  1  0
 14 15  1  0
 15 16  2  0
 16 17  1  0
 17 18  2  0
 18 19  1  0
 19 20  2  0
 20 21  1  0
 21 22  2  0
 22 23  1  0
 14 23  2  0
 18 23  1  0
 25 26  1  0
 26 27  2  0
 27 28  1  0
 28 29  2  0
 29 30  1  0
 25 30  2  0
 32 33  1  0
 33 34  1  0
 34 35  2  0
 35 36  1  0
 36 37  2  0
 37 38  1  0
 33 38  2  0
 35 39  1  0
 31 32  1  0
 28 31  1  0
 27 40  1  0
 24 25  1  0
 17 24  1  0
  1 20  1  0
M  END
> <chembl_id>
CHEMBL3814812

$$$$

  SciTegic04201616412D

 34 38  0  0  0  0            999 V2000
    3.1989    6.4754    0.0000 C   0  0
    1.7028    6.5303    0.0000 C   0  0
    3.9947    7.7437    0.0000 C   0  0
    3.8991    5.1522    0.0000 C   0  0
    0.9871    7.8632    0.0000 N   0  0
    5.4907    7.6888    0.0000 C   0  0
    0.9100    5.2560    0.0000 N   0  0
    5.3954    5.0970    0.0000 C   0  0
    6.1910    6.3656    0.0000 C   0  0
   -2.7942    6.6799    0.0000 C   0  0
    3.2945    9.0669    0.0000 N   0  0
   -1.2951    6.6284    0.0000 C   0  0
    1.7829    9.1315    0.0000 C   0  0
   -0.5901    5.3044    0.0000 C   0  0
   -3.5884    5.4074    0.0000 C   0  0
   -2.8834    4.0833    0.0000 C   0  0
   -1.3843    4.0319    0.0000 C   0  0
    7.6910    6.3137    0.0000 O   0  0
   -3.5187    3.0653    0.0000 Cl  0  0
   -0.8203    2.9726    0.0000 F   0  0
    8.3272    7.3311    0.0000 C   0  0
    6.0948    3.7691    0.0000 O   0  0
    5.2954    2.4990    0.0000 C   0  0
    5.9871    1.1802    0.0000 N   0  0
    4.0962    2.5451    0.0000 O   0  0
    7.7014    1.2233    0.0000 C   0  0
    8.4164    0.1292    0.0000 C   0  0  1  0  0  0
    7.7530   -1.3180    0.0000 N   0  0
    6.0646   -1.3611    0.0000 C   0  0
    5.3927    0.0086    0.0000 C   0  0  2  0  0  0
    8.5629   -2.2035    0.0000 C   0  0
    6.9519   -0.5513    0.0000 C   0  0
    9.2778   -0.3786    0.0000 H   0  0
    4.3931    0.0372    0.0000 H   0  0
  2  1  1  0
  3  1  1  0
  4  1  2  0
  5  2  2  0
  6  3  2  0
  7  2  1  0
  8  4  1  0
  9  8  2  0
 10 12  1  0
 11  3  1  0
 12 14  2  0
 13 11  2  0
 14  7  1  0
 15 16  1  0
 16 17  2  0
 17 14  1  0
 18  9  1  0
  6  9  1  0
 13  5  1  0
 10 15  2  0
 16 19  1  0
 17 20  1  0
 18 21  1  0
  8 22  1  0
 22 23  1  0
 23 24  1  0
 23 25  2  0
 24 26  1  0
 24 30  1  0
 26 27  1  0
 27 28  1  0
 28 29  1  0
 29 30  1  0
 28 31  1  0
 27 32  1  0
 30 32  1  0
 27 33  1  6
 30 34  1  6
M  END
> <chembl_id>
CHEMBL3623286

$$$$

  SciTegic09261414462D

 23 25  0  0  0  0            999 V2000
   28.3373   -4.3404    0.0000 N   0  0
   29.0469   -3.9310    0.0000 C   0  0
   29.0441   -3.1083    0.0000 N   0  0
   28.3355   -2.7030    0.0000 C   0  0
   27.6292   -3.9314    0.0000 C   0  0
   27.6305   -3.1149    0.0000 C   0  0
   26.8543   -2.8614    0.0000 C   0  0
   26.3733   -3.5213    0.0000 C   0  0
   26.8523   -4.1825    0.0000 S   0  0
   28.3317   -1.8858    0.0000 N   0  0
   29.0375   -1.4740    0.0000 C   0  0
   29.7450   -1.8841    0.0000 C   0  0
   30.4503   -1.4730    0.0000 C   0  0
   30.4470   -0.6549    0.0000 C   0  0
   29.7324   -0.2498    0.0000 C   0  0
   29.0300   -0.6633    0.0000 C   0  0
   25.5561   -3.5201    0.0000 N   0  0
   25.1485   -2.8118    0.0000 C   0  0
   24.3313   -2.8106    0.0000 C   0  0
   25.5581   -2.1047    0.0000 O   0  0
   31.1522   -0.2421    0.0000 F   0  0
   31.1597   -1.8786    0.0000 Cl  0  0
   23.9238   -2.1023    0.0000 Cl  0  0
  5  1  1  0
  1  2  2  0
  2  3  1  0
  3  4  2  0
  4  6  1  0
  5  6  2  0
  6  7  1  0
  7  8  2  0
  8  9  1  0
  9  5  1  0
  4 10  1  0
 10 11  1  0
 11 12  2  0
 12 13  1  0
 13 14  2  0
 14 15  1  0
 15 16  2  0
 16 11  1  0
  8 17  1  0
 17 18  1  0
 18 19  1  0
 18 20  2  0
 14 21  1  0
 13 22  1  0
 19 23  1  0
M  END
> <chembl_id>
CHEMBL3233770

$$$$

  SciTegic05221516342D

 29 33  0  0  0  0            999 V2000
   33.3160  -15.6597    0.0000 N   0  0
   32.9035  -17.8031    0.0000 C   0  0
   32.0785  -17.8031    0.0000 C   0  0
   31.6660  -17.0914    0.0000 C   0  0
   32.0785  -16.3755    0.0000 C   0  0
   32.9035  -16.3755    0.0000 C   0  0
   33.3160  -17.0914    0.0000 N   0  0
   30.7710  -18.0820    0.0000 C   0  0
   31.5255  -18.4153    0.0000 N   0  0
   30.8600  -17.2596    0.0000 N   0  0
   29.1643  -19.4849    0.0000 N   0  0
   28.7518  -18.7733    0.0000 N   0  0
   29.3049  -18.1569    0.0000 C   0  0
   30.0593  -18.4945    0.0000 C   0  0
   29.9745  -19.3126    0.0000 C   0  0
   35.3785  -16.3755    0.0000 C   0  0
   34.5535  -16.3755    0.0000 N   0  0
   34.1410  -15.6597    0.0000 C   0  0
   34.5535  -14.9480    0.0000 C   0  0
   35.3785  -14.9480    0.0000 C   0  0
   35.7910  -15.6597    0.0000 N   0  0
   35.7910  -17.0914    0.0000 N   0  0
   36.6160  -17.0914    0.0000 C   0  0
   37.0285  -17.8031    0.0000 C   0  0
   36.6160  -18.5190    0.0000 C   0  0
   35.7910  -18.5190    0.0000 C   0  0
   35.3785  -17.8031    0.0000 C   0  0
   37.0285  -19.2306    0.0000 O   0  0
   37.8535  -19.2306    0.0000 C   0  0
  2  3  1  0
  3  4  2  0
  4  5  1  0
  5  6  2  0
  6  7  1  0
  2  7  2  0
  8  9  2  0
  8 10  1  0
  3  9  1  0
  4 10  1  0
 11 12  1  0
 12 13  2  0
 13 14  1  0
 14 15  2  0
 11 15  1  0
  8 14  1  0
  1  6  1  0
 16 17  1  0
 17 18  2  0
 18 19  1  0
 19 20  2  0
 20 21  1  0
 16 21  2  0
 22 23  1  0
 23 24  1  0
 24 25  1  0
 25 26  1  0
 26 27  1  0
 22 27  1  0
 28 29  1  0
 25 28  1  0
 16 22  1  0
  1 18  1  0
M  END
> <chembl_id>
CHEMBL3354185

$$$$

  SciTegic06061310022D

 39 45  0  0  0  0            999 V2000
    9.6618    0.6761    0.0000 N   0  0
   10.2138    0.0630    0.0000 C   0  0
    9.9589   -0.7216    0.0000 N   0  0
    8.8548    0.5046    0.0000 C   0  0
    8.5999   -0.2800    0.0000 C   0  0
    9.1519   -0.8931    0.0000 C   0  0
    8.7394   -1.6076    0.0000 N   0  0
    7.9324   -1.4361    0.0000 N   0  0
    7.8462   -0.6156    0.0000 C   0  0
    8.3028    1.1177    0.0000 N   0  0
    7.1317   -0.2031    0.0000 C   0  0
    6.4172   -0.6156    0.0000 C   0  0
    6.4172    1.0344    0.0000 C   0  0
    7.1317    0.6219    0.0000 C   0  0
    9.0749   -2.3613    0.0000 C   0  0  1  0  0  0
    8.5900   -3.0287    0.0000 C   0  0
    8.9256   -3.7824    0.0000 C   0  0
    9.7461   -3.8686    0.0000 C   0  0  1  0  0  0
   10.2310   -3.2012    0.0000 C   0  0
    9.8954   -2.4475    0.0000 C   0  0
   10.0816   -4.6223    0.0000 N   0  0
   10.9021   -4.7085    0.0000 C   0  0
   11.2377   -5.4622    0.0000 C   0  0
   10.7527   -6.1297    0.0000 O   0  0
    9.9323   -6.0434    0.0000 C   0  0
    9.5967   -5.2897    0.0000 C   0  0
    5.7028    0.6219    0.0000 C   0  0
    5.7028   -0.2031    0.0000 C   0  0
    4.9181   -0.4580    0.0000 N   0  0
    4.4332    0.2094    0.0000 C   0  0
    4.9181    0.8768    0.0000 N   0  0
    3.6082    0.2094    0.0000 C   0  0
    3.1957    0.9239    0.0000 C   0  0
    2.3707    0.9239    0.0000 C   0  0
    1.9582    1.6383    0.0000 C   0  0
    2.3707    2.3528    0.0000 C   0  0
    3.1957    2.3528    0.0000 C   0  0
    3.6082    1.6383    0.0000 C   0  0
    4.4332    1.6383    0.0000 Cl  0  0
 15 20  1  0
 16 17  1  0
 17 18  1  0
 18 19  1  0
 19 20  1  0
 15  7  1  6
 21 22  1  0
  4  1  1  0
  4 10  1  0
  5  6  1  0
 11 12  2  0
 12 28  1  0
 21 26  1  0
 22 23  1  0
 23 24  1  0
 24 25  1  0
 25 26  1  0
 18 21  1  1
 27 28  2  0
  2  3  1  0
 27 13  1  0
  3  6  2  0
 13 14  2  0
 14 11  1  0
 28 29  1  0
 29 30  1  0
 30 31  2  0
 31 27  1  0
  9 11  1  0
 30 32  1  0
 15 16  1  0
 32 33  1  0
  1  2  2  0
 33 34  2  0
  5  4  2  0
 34 35  1  0
  6  7  1  0
 35 36  2  0
  7  8  1  0
 36 37  1  0
  8  9  2  0
 37 38  2  0
 38 33  1  0
  9  5  1  0
 38 39  1  0
M  END
> <chembl_id>
CHEMBL251732

$$$$

  SciTegic12171313022D

 28 31  0  0  0  0            999 V2000
   22.2072  -18.6179    0.0000 C   0  0
   22.2061  -19.4374    0.0000 C   0  0
   22.9141  -19.8464    0.0000 N   0  0
   23.6238  -19.4370    0.0000 C   0  0
   23.6209  -18.6143    0.0000 N   0  0
   22.9123  -18.2090    0.0000 C   0  0
   21.4994  -18.2095    0.0000 Cl  0  0
   22.9104  -17.3919    0.0000 C   0  0
   23.5700  -16.9096    0.0000 C   0  0
   23.3152  -16.1331    0.0000 N   0  0
   22.2479  -16.9135    0.0000 C   0  0
   22.5008  -16.1365    0.0000 C   0  0
   21.9548  -15.5309    0.0000 C   0  0
   21.1558  -15.7012    0.0000 C   0  0
   20.9057  -16.4825    0.0000 C   0  0
   21.4533  -17.0847    0.0000 C   0  0
   24.3321  -19.8444    0.0000 N   0  0
   25.0392  -19.4347    0.0000 C   0  0
   25.7442  -19.8427    0.0000 C   0  0
   26.4508  -19.4336    0.0000 C   0  0
   26.4499  -18.6156    0.0000 C   0  0
   25.7366  -18.2082    0.0000 C   0  0
   25.0330  -18.6196    0.0000 C   0  0
   27.1565  -18.2049    0.0000 N   0  0
   27.8654  -18.6115    0.0000 C   0  0
   28.5719  -18.2008    0.0000 C   0  0
   27.8677  -19.4286    0.0000 O   0  0
   29.2808  -18.6074    0.0000 C   0  0
  1  2  2  0
  2  3  1  0
  3  4  2  0
  4  5  1  0
  5  6  2  0
  6  1  1  0
  1  7  1  0
  8  9  2  0
  9 10  1  0
 10 12  1  0
 11  8  1  0
  6  8  1  0
 11 12  2  0
 12 13  1  0
 13 14  2  0
 14 15  1  0
 15 16  2  0
 16 11  1  0
  4 17  1  0
 17 18  1  0
 18 19  2  0
 19 20  1  0
 20 21  2  0
 21 22  1  0
 22 23  2  0
 23 18  1  0
 21 24  1  0
 24 25  1  0
 25 26  1  0
 25 27  2  0
 26 28  2  0
M  END
> <chembl_id>
CHEMBL2426283

$$$$

  SciTegic12091611202D

 29 32  0  0  0  0            999 V2000
    2.8401   -9.4736    0.0000 C   0  0
   -4.9282   -3.7385    0.0000 C   0  0
    1.5604   -6.0143    0.0000 C   0  0
   -2.3155    0.7475    0.0000 N   0  0
   -2.3155   -0.7475    0.0000 C   0  0
    1.7138    1.2033    0.0000 N   0  0
   -1.0028    1.5132    0.0000 C   0  0
    1.7138   -1.2033    0.0000 N   0  0
   -2.3350   -5.2470    0.0000 C   0  0
   -1.0449   -7.5017    0.0000 C   0  0
   -3.6187   -1.4919    0.0000 N   0  0
    2.8477   -8.2736    0.0000 O   0  0
    1.5531   -7.5143    0.0000 C   0  0  1  0  0  0
    0.2917   -0.7475    0.0000 C   0  0
    2.5889    0.0182    0.0000 C   0  0
   -2.3301   -3.7470    0.0000 N   0  0
    0.2650   -5.2580    0.0000 C   0  0
   -3.6267   -2.9927    0.0000 C   0  0
   -4.9331   -5.2385    0.0000 C   0  0
   -1.0028   -1.5132    0.0000 C   0  0
   -3.6365   -5.9928    0.0000 N   0  0
    0.2505   -8.2579    0.0000 C   0  0
    0.2917    0.7475    0.0000 C   0  0
   -1.0378   -6.0016    0.0000 N   0  0
    2.1855   -2.6254    0.0000 C   0  0
    3.3606   -2.8684    0.0000 C   0  0
    1.3877   -3.5218    0.0000 C   0  0
    4.0872    0.0382    0.0000 C   0  0
    4.6738    1.0851    0.0000 O   0  0
 12  1  1  0
 13 12  1  1
 17  3  1  0
 24 17  1  0
 11  5  1  0
  5  4  1  0
 14  8  1  0
 18  2  1  0
 15  6  2  0
  3 13  1  0
 16 18  2  0
 23  6  1  0
 15  8  1  0
 22 10  1  0
 11 18  1  0
  7 23  1  0
 23 14  2  0
  7  4  2  0
 14 20  1  0
 19 21  1  0
 20  5  2  0
  9 24  1  0
  2 19  2  0
 24 10  1  0
  9 21  2  0
  9 16  1  0
 13 22  1  0
  8 25  1  0
 25 26  1  0
 25 27  1  0
 15 28  1  0
 28 29  1  0
M  END
> <chembl_id>
CHEMBL3734877

$$$$

  SciTegic12091614152D

 29 31  0  0  0  0            999 V2000
    1.2990   -0.7500    0.0000 C   0  0
    1.2990    0.7500    0.0000 C   0  0
    0.0000    1.5000    0.0000 C   0  0
   -1.2990    0.7500    0.0000 C   0  0
   -1.2990   -0.7500    0.0000 C   0  0
    0.0000   -1.5000    0.0000 C   0  0
    2.5973   -1.5031    0.0000 N   0  0
   -0.0031    3.0008    0.0000 N   0  0
    1.2883   -5.2495    0.0000 C   0  0
    1.2935   -3.7495    0.0000 N   0  0
    2.5951   -3.0039    0.0000 C   0  0
    3.8915   -3.7585    0.0000 C   0  0
    3.8864   -5.2585    0.0000 C   0  0
    2.5847   -6.0040    0.0000 N   0  0
   -0.0125   -5.9981    0.0000 N   0  0
   -0.0155   -7.4989    0.0000 N   0  0
   -1.3163   -8.2475    0.0000 C   0  0
   -1.3194   -9.7484    0.0000 C   0  0
   -0.0203  -10.4984    0.0000 C   0  0
   -0.0203  -11.9984    0.0000 C   0  0
   -1.3193  -12.7484    0.0000 C   0  0
   -2.6184  -11.9985    0.0000 C   0  0
   -2.6184  -10.4985    0.0000 C   0  0
    4.9329   -3.1621    0.0000 Cl  0  0
   -1.3039    3.7494    0.0000 C   0  0
   -2.3421    3.1476    0.0000 O   0  0
   -1.3070    5.2502    0.0000 C   0  0
   -2.3471    5.8487    0.0000 C   0  0
   -3.6577   -9.8985    0.0000 F   0  0
  1  2  1  0
  2  3  2  0
  3  4  1  0
  4  5  2  0
  5  6  1  0
  1  6  2  0
  1  7  1  0
  3  8  1  0
  9 10  1  0
 10 11  2  0
 11 12  1  0
 12 13  2  0
 13 14  1  0
  9 14  2  0
 15 16  1  0
 17 18  1  0
 18 19  1  0
 19 20  2  0
 20 21  1  0
 21 22  2  0
 22 23  1  0
 18 23  2  0
 16 17  2  0
  9 15  1  0
 12 24  1  0
  7 11  1  0
  8 25  1  0
 25 26  2  0
 25 27  1  0
 27 28  2  0
 23 29  1  0
M  END
> <chembl_id>
CHEMBL3739812

$$$$

  SciTegic06061310022D

 45 51  0  0  0  0            999 V2000
    8.4834    0.4191    0.0000 N   0  0
    9.0355   -0.1940    0.0000 C   0  0
    8.7805   -0.9787    0.0000 N   0  0
    7.6764    0.2475    0.0000 C   0  0
    7.4215   -0.5371    0.0000 C   0  0
    7.9735   -1.1502    0.0000 C   0  0
    7.5610   -1.8646    0.0000 N   0  0
    6.7541   -1.6931    0.0000 N   0  0
    6.6678   -0.8726    0.0000 C   0  0
    7.1244    0.8606    0.0000 N   0  0
    5.9534   -0.4601    0.0000 C   0  0
    5.2389   -0.8726    0.0000 C   0  0
    5.2389    0.7774    0.0000 C   0  0
    5.9534    0.3649    0.0000 C   0  0
    7.8966   -2.6183    0.0000 C   0  0  1  0  0  0
    8.7171   -2.7046    0.0000 C   0  0
    9.0526   -3.4582    0.0000 C   0  0
    8.5677   -4.1257    0.0000 C   0  0  1  0  0  0
    7.7472   -4.0394    0.0000 C   0  0
    7.4117   -3.2858    0.0000 C   0  0
    8.9033   -4.8793    0.0000 N   0  0
    9.7238   -4.9656    0.0000 C   0  0
   10.0593   -5.7193    0.0000 C   0  0
    9.5744   -6.3867    0.0000 N   0  0
    8.7539   -6.3005    0.0000 C   0  0
    8.4183   -5.5468    0.0000 C   0  0
    4.5244    0.3649    0.0000 C   0  0
    4.5244   -0.4601    0.0000 C   0  0
    3.7398   -0.7151    0.0000 N   0  0
    3.2549   -0.0476    0.0000 C   0  0
    3.7398    0.6198    0.0000 N   0  0
    2.4299   -0.0476    0.0000 C   0  0
    2.0174    0.6668    0.0000 C   0  0
    1.1924    0.6668    0.0000 C   0  0
    0.7799    1.3813    0.0000 C   0  0
    1.1924    2.0958    0.0000 C   0  0
    2.0174    2.0958    0.0000 C   0  0
    2.4299    1.3813    0.0000 C   0  0
    3.2549    1.3813    0.0000 O   0  0
    3.6674    2.0958    0.0000 C   0  0
    9.9099   -7.1404    0.0000 C   0  0
    9.4250   -7.8078    0.0000 N   0  0
   10.7304   -7.2266    0.0000 O   0  0
    9.7606   -8.5615    0.0000 C   0  0
    8.6045   -7.7216    0.0000 C   0  0
 21 22  1  0
  4  1  1  0
  4 10  1  0
  5  6  1  0
 11 12  2  0
 12 28  1  0
 21 26  1  0
 22 23  1  0
 23 24  1  0
 24 25  1  0
 25 26  1  0
 18 21  1  6
 27 28  2  0
  2  3  1  0
 27 13  1  0
  3  6  2  0
 13 14  2  0
 14 11  1  0
 28 29  1  0
 29 30  1  0
 30 31  2  0
 31 27  1  0
  9 11  1  0
 30 32  1  0
 15 16  1  0
 32 33  1  0
  1  2  2  0
 33 34  2  0
  5  4  2  0
 34 35  1  0
  6  7  1  0
 35 36  2  0
  7  8  1  0
 36 37  1  0
  8  9  2  0
 37 38  2  0
 38 33  1  0
  9  5  1  0
 38 39  1  0
 15 20  1  0
 39 40  1  0
 16 17  1  0
 24 41  1  0
 17 18  1  0
 41 42  1  0
 18 19  1  0
 41 43  2  0
 19 20  1  0
 42 44  1  0
 15  7  1  1
 42 45  1  0
M  END
> <chembl_id>
CHEMBL448628

$$$$

  SciTegic11131809442D

 32 34  0  0  0  0            999 V2000
    3.6387   -0.8963    0.0000 C   0  0
    2.6003   -1.4977    0.0000 O   0  0
    1.2990   -0.7500    0.0000 C   0  0
    1.2990    0.7500    0.0000 C   0  0
    0.0000    1.5000    0.0000 C   0  0
   -0.0031    3.0008    0.0000 N   0  0
   -1.3039    3.7494    0.0000 C   0  0
   -1.3064    4.9494    0.0000 C   0  0
   -2.3421    3.1476    0.0000 C   0  0
   -1.2990    0.7500    0.0000 C   0  0
   -1.2990   -0.7500    0.0000 C   0  0
    0.0000   -1.5000    0.0000 C   0  0
   -0.0031   -3.0008    0.0000 N   0  0
   -1.3039   -3.7494    0.0000 C   0  0
   -1.3092   -5.2494    0.0000 N   0  0
   -2.6108   -5.9949    0.0000 C   0  0
   -3.9072   -5.2404    0.0000 C   0  0
   -4.9485   -5.8368    0.0000 Cl  0  0
   -3.9020   -3.7404    0.0000 C   0  0
   -5.1977   -2.9829    0.0000 N   0  0
   -5.1903   -1.4821    0.0000 C   0  0
   -6.4841   -0.7230    0.0000 C   0  0
   -6.4738    0.7769    0.0000 C   0  0
   -5.1696    1.5179    0.0000 C   0  0
   -3.8758    0.7590    0.0000 C   0  0
   -2.5693    1.4977    0.0000 N   0  0
   -1.2759    0.7365    0.0000 C   0  0
   -1.2862   -0.4635    0.0000 O   0  0
    0.0306    1.4752    0.0000 C   0  0
    1.0648    0.8666    0.0000 C   0  0
   -3.8861   -0.7410    0.0000 C   0  0
   -2.6004   -2.9949    0.0000 N   0  0
  1  2  1  0
  2  3  1  0
  3  4  2  0
  4  5  1  0
  5  6  1  0
  6  7  1  0
  7  8  1  0
  7  9  1  0
  5 10  2  0
 10 11  1  0
 11 12  2  0
 12  3  1  0
 12 13  1  0
 13 14  1  0
 14 15  2  0
 15 16  1  0
 16 17  2  0
 17 18  1  0
 17 19  1  0
 19 20  1  0
 20 21  1  0
 21 22  2  0
 22 23  1  0
 23 24  2  0
 24 25  1  0
 25 26  1  0
 26 27  1  0
 27 28  2  0
 27 29  1  0
 29 30  2  0
 25 31  2  0
 31 21  1  0
 19 32  2  0
 32 14  1  0
M  END
> <chembl_id>
CHEMBL3962343

$$$$

  SciTegic10311316212D

 50 55  0  0  0  0            999 V2000
   28.8246  -16.8308    0.0000 O   0  0
   28.6141  -17.6233    0.0000 S   0  0
   29.4056  -17.4093    0.0000 O   0  0
   20.1312  -20.3307    0.0000 C   0  0
   20.1301  -21.1502    0.0000 C   0  0
   20.8381  -21.5592    0.0000 C   0  0
   21.5478  -21.1498    0.0000 C   0  0
   21.5449  -20.3271    0.0000 C   0  0
   20.8363  -19.9218    0.0000 C   0  0
   19.4196  -19.9179    0.0000 N   0  0
   19.4214  -19.0997    0.0000 C   0  0
   18.7176  -18.6914    0.0000 C   0  0
   18.0076  -19.0967    0.0000 N   0  0
   18.0059  -19.9148    0.0000 C   0  0
   18.7141  -20.3277    0.0000 C   0  0
   20.8379  -22.3764    0.0000 O   0  0
   20.1301  -22.7848    0.0000 C   0  0
   22.2561  -21.5572    0.0000 N   0  0
   22.9632  -21.1475    0.0000 C   0  0
   23.6682  -21.5555    0.0000 N   0  0
   24.3748  -21.1464    0.0000 C   0  0
   24.3739  -20.3284    0.0000 C   0  0
   23.6606  -19.9210    0.0000 C   0  0
   22.9570  -20.3324    0.0000 N   0  0
   23.6565  -19.1039    0.0000 O   0  0
   24.3621  -18.6917    0.0000 C   0  0
   25.0688  -19.0970    0.0000 C   0  0
   25.7739  -18.6855    0.0000 C   0  0
   25.7702  -17.8674    0.0000 C   0  0
   25.0554  -17.4626    0.0000 C   0  0
   24.3532  -17.8765    0.0000 C   0  0
   25.0805  -19.9177    0.0000 Cl  0  0
   17.3014  -18.6856    0.0000 C   0  0
   26.4835  -19.0908    0.0000 C   0  0
   27.1893  -18.6789    0.0000 O   0  0
   27.1856  -17.8617    0.0000 C   0  0
   27.8391  -17.3779    0.0000 C   0  0
   27.5830  -16.6019    0.0000 N   0  3
   26.7657  -16.6056    0.0000 O   0  0
   26.5169  -17.3840    0.0000 N   0  0
   28.0603  -15.9385    0.0000 O   0  5
   28.7933  -18.4233    0.0000 C   0  0
   28.1885  -18.9693    0.0000 C   0  0
   28.3633  -19.7667    0.0000 C   0  0
   29.1429  -20.0147    0.0000 C   0  0
   29.7478  -19.4590    0.0000 C   0  0
   29.5699  -18.6635    0.0000 C   0  0
   17.3043  -17.8684    0.0000 O   0  0
   16.5922  -19.0917    0.0000 C   0  0
   15.8860  -18.6806    0.0000 C   0  0
  2  1  2  0
  3  2  2  0
  4  5  2  0
  5  6  1  0
  6  7  2  0
  7  8  1  0
  8  9  2  0
  9  4  1  0
 10 11  1  0
 10 15  1  0
 11 12  1  0
 12 13  1  0
 13 14  1  0
 14 15  1  0
  4 10  1  0
  6 16  1  0
 16 17  1  0
  7 18  1  0
 18 19  1  0
 19 20  2  0
 20 21  1  0
 21 22  2  0
 22 23  1  0
 23 24  2  0
 24 19  1  0
 23 25  1  0
 25 26  1  0
 26 27  2  0
 27 28  1  0
 28 29  2  0
 29 30  1  0
 30 31  2  0
 31 26  1  0
 22 32  1  0
 13 33  1  0
 28 34  1  0
 34 35  1  0
 35 36  1  0
 36 37  1  0
 37 38  2  0
 38 39  1  0
 39 40  1  0
 40 36  2  0
 38 41  1  0
 37  2  1  0
  2 42  1  0
 42 43  2  0
 43 44  1  0
 44 45  2  0
 45 46  1  0
 46 47  2  0
 47 42  1  0
 33 48  2  0
 33 49  1  0
 49 50  2  0
M  CHG  2  38   1  41  -1
M  END
> <chembl_id>
CHEMBL2408830

$$$$

  SciTegic10311316212D

 48 53  0  0  0  0            999 V2000
   18.5601   -0.9162    0.0000 O   0  0
   19.3526   -1.1309    0.0000 S   0  0
   19.1422   -0.3373    0.0000 O   0  0
   10.6757   -3.5246    0.0000 C   0  0
   10.6746   -4.3442    0.0000 C   0  0
   11.3826   -4.7531    0.0000 C   0  0
   12.0923   -4.3437    0.0000 C   0  0
   12.0895   -3.5210    0.0000 C   0  0
   11.3808   -3.1158    0.0000 C   0  0
    9.9641   -3.1118    0.0000 N   0  0
    9.9659   -2.2937    0.0000 C   0  0
    9.2622   -1.8853    0.0000 C   0  0
    8.5521   -2.2906    0.0000 N   0  0
    8.5504   -3.1088    0.0000 C   0  0
    9.2586   -3.5216    0.0000 C   0  0
   11.3824   -5.5703    0.0000 O   0  0
   10.6746   -5.9787    0.0000 C   0  0
   12.8006   -4.7512    0.0000 N   0  0
   13.5077   -4.3415    0.0000 C   0  0
   14.2127   -4.7494    0.0000 N   0  0
   14.9193   -4.3404    0.0000 C   0  0
   14.9185   -3.5223    0.0000 C   0  0
   14.2051   -3.1150    0.0000 C   0  0
   13.5015   -3.5263    0.0000 N   0  0
   14.2010   -2.2978    0.0000 O   0  0
   14.9066   -1.8856    0.0000 C   0  0
   15.6133   -2.2909    0.0000 C   0  0
   16.3184   -1.8794    0.0000 C   0  0
   16.3147   -1.0613    0.0000 C   0  0
   15.6000   -0.6565    0.0000 C   0  0
   14.8977   -1.0704    0.0000 C   0  0
   15.6250   -3.1116    0.0000 Cl  0  0
    7.8459   -1.8795    0.0000 C   0  0
   17.0198   -0.6482    0.0000 C   0  0
   17.7301   -1.0522    0.0000 C   0  0
   17.7354   -1.8694    0.0000 O   0  0
   18.4457   -2.2734    0.0000 C   0  0
   18.5354   -3.0844    0.0000 N   0  0
   19.3359   -3.2492    0.0000 O   0  0
   19.7399   -2.5388    0.0000 N   0  3
   19.1892   -1.9352    0.0000 C   0  0
   20.5521   -2.4481    0.0000 O   0  5
   20.1285   -0.8764    0.0000 C   0  0
   20.7408   -1.4233    0.0000 C   0  0
   21.5155   -1.1656    0.0000 C   0  0
   21.6801   -0.3643    0.0000 C   0  0
   21.0639    0.1789    0.0000 C   0  0
   20.2916   -0.0817    0.0000 C   0  0
  2  1  2  0
  3  2  2  0
  4  5  2  0
  5  6  1  0
  6  7  2  0
  7  8  1  0
  8  9  2  0
  9  4  1  0
 10 11  1  0
 10 15  1  0
 11 12  1  0
 12 13  1  0
 13 14  1  0
 14 15  1  0
  4 10  1  0
  6 16  1  0
 16 17  1  0
  7 18  1  0
 18 19  1  0
 19 20  2  0
 20 21  1  0
 21 22  2  0
 22 23  1  0
 23 24  2  0
 24 19  1  0
 23 25  1  0
 25 26  1  0
 26 27  2  0
 27 28  1  0
 28 29  2  0
 29 30  1  0
 30 31  2  0
 31 26  1  0
 22 32  1  0
 13 33  1  0
 29 34  1  0
 34 35  1  0
 35 36  1  0
 36 37  1  0
 37 38  2  0
 38 39  1  0
 39 40  1  0
 40 41  2  0
 41 37  1  0
 41  2  1  0
 40 42  1  0
  2 43  1  0
 43 44  2  0
 44 45  1  0
 45 46  2  0
 46 47  1  0
 47 48  2  0
 48 43  1  0
M  CHG  2  40   1  42  -1
M  END
> <chembl_id>
CHEMBL2408824

$$$$

  SciTegic05221516342D

 44 49  0  0  0  0            999 V2000
   13.6267  -11.4819    0.0000 C   0  0
   13.6255  -12.3014    0.0000 C   0  0
   14.3336  -12.7104    0.0000 N   0  0
   15.0433  -12.3010    0.0000 C   0  0
   15.0404  -11.4783    0.0000 N   0  0
   14.3318  -11.0731    0.0000 C   0  0
   14.3299  -10.2559    0.0000 C   0  0
   14.9895   -9.7736    0.0000 C   0  0
   14.7347   -8.9972    0.0000 N   0  0
   13.6674   -9.7776    0.0000 C   0  0
   13.9142   -8.9964    0.0000 N   0  0
   13.3642   -8.3954    0.0000 C   0  0
   12.5644   -8.5699    0.0000 C   0  0
   12.3176   -9.3510    0.0000 C   0  0
   12.8705   -9.9577    0.0000 C   0  0
   12.9189  -11.0735    0.0000 Cl  0  0
   15.7516  -12.7085    0.0000 N   0  0
   16.4587  -12.2988    0.0000 C   0  0
   17.1637  -12.7067    0.0000 C   0  0
   17.8703  -12.2976    0.0000 C   0  0
   17.8694  -11.4796    0.0000 C   0  0
   17.1561  -11.0723    0.0000 C   0  0
   16.4524  -11.4836    0.0000 C   0  0
   17.1638  -13.5239    0.0000 O   0  0
   16.4561  -13.9325    0.0000 C   0  0
   17.1519  -10.2551    0.0000 N   0  0
   16.4422   -9.8501    0.0000 C   0  0
   16.4380   -9.0329    0.0000 C   0  0
   15.7365  -10.2623    0.0000 O   0  0
   17.1436   -8.6207    0.0000 C   0  0
   18.5760  -11.0689    0.0000 N   0  0
   19.2831  -11.4811    0.0000 C   0  0
   19.9875  -11.0739    0.0000 C   0  0
   19.9894  -10.2564    0.0000 N   0  0
   19.2806   -9.8476    0.0000 C   0  0
   18.5700  -10.2565    0.0000 C   0  0
   20.6974   -9.8484    0.0000 C   0  0
   20.6981   -9.0312    0.0000 O   0  0
   21.4048  -10.2576    0.0000 C   0  0  1  0  0  0
   21.4010  -11.0742    0.0000 N   0  0
   22.1043  -11.4833    0.0000 C   0  0
   22.8148  -11.0788    0.0000 C   0  0
   22.8175  -10.2607    0.0000 C   0  0
   22.1097   -9.8470    0.0000 C   0  0
  1  2  2  0
  2  3  1  0
  3  4  2  0
  4  5  1  0
  5  6  2  0
  6  1  1  0
  7  8  1  0
  8  9  2  0
  9 11  1  0
 10  7  2  0
  6  7  1  0
 10 11  1  0
 10 15  1  0
 11 12  1  0
 12 13  2  0
 13 14  1  0
 14 15  2  0
  1 16  1  0
  4 17  1  0
 17 18  1  0
 18 19  2  0
 19 20  1  0
 20 21  2  0
 21 22  1  0
 22 23  2  0
 23 18  1  0
 19 24  1  0
 24 25  1  0
 22 26  1  0
 26 27  1  0
 27 28  1  0
 27 29  2  0
 28 30  2  0
 21 31  1  0
 31 32  1  0
 31 36  1  0
 32 33  1  0
 33 34  1  0
 34 35  1  0
 35 36  1  0
 34 37  1  0
 37 38  2  0
 39 37  1  6
 39 40  1  0
 39 44  1  0
 40 41  1  0
 41 42  1  0
 42 43  1  0
 43 44  1  0
M  END
> <chembl_id>
CHEMBL3353397

$$$$

  SciTegic01181116592D

 39 45  0  0  0  0            999 V2000
    4.4800  -22.8981    0.0000 C   0  0  2  0  0  0
    3.9281  -23.5108    0.0000 C   0  0
    4.1801  -24.2930    0.0000 C   0  0
    4.9870  -24.4690    0.0000 C   0  0  2  0  0  0
    5.5414  -23.8563    0.0000 C   0  0
    5.2892  -23.0675    0.0000 C   0  0
    5.2388  -25.2551    0.0000 N   0  0
    4.6857  -25.8643    0.0000 C   0  0
    4.9347  -26.6476    0.0000 C   0  0
    5.7409  -26.8266    0.0000 O   0  0
    6.2978  -26.2159    0.0000 C   0  0
    6.0485  -25.4263    0.0000 C   0  0
    4.2237  -22.1134    0.0000 N   0  0
    2.0123  -21.0370    0.0000 N   0  0
    2.0111  -21.8607    0.0000 C   0  0
    2.7304  -22.2737    0.0000 N   0  0
    2.7286  -20.6240    0.0000 C   0  0
    3.4403  -21.0333    0.0000 C   0  0
    3.4410  -21.8607    0.0000 C   0  0
    4.7098  -21.4499    0.0000 N   0  0
    4.2258  -20.7795    0.0000 C   0  0
    4.6368  -20.0641    0.0000 C   0  0
    5.4630  -20.0660    0.0000 C   0  0
    5.8741  -19.3512    0.0000 C   0  0
    5.4597  -18.6361    0.0000 C   0  0
    4.6301  -18.6406    0.0000 C   0  0
    4.2227  -19.3562    0.0000 C   0  0
    5.8699  -17.9198    0.0000 N   0  0
    6.6954  -17.9169    0.0000 C   0  0
    7.1825  -18.5777    0.0000 O   0  0
    7.1778  -17.2421    0.0000 N   0  0
    7.9638  -17.4943    0.0000 C   0  0
    7.9645  -18.3169    0.0000 C   0  0
    8.6761  -18.7259    0.0000 C   0  0
    9.3877  -18.3132    0.0000 C   0  0
    9.3829  -17.4875    0.0000 C   0  0
    8.6706  -17.0822    0.0000 C   0  0
    8.6778  -19.5514    0.0000 Cl  0  0
    2.7282  -19.7984    0.0000 N   0  0
  2  3  1  0
  3  4  1  0
  4  5  1  0
 19 13  1  0
 13 20  1  0
 20 21  2  0
 21 18  1  0
  7 12  1  0
 21 22  1  0
  8  9  1  0
 22 23  2  0
  9 10  1  0
 23 24  1  0
 10 11  1  0
 24 25  2  0
 11 12  1  0
 25 26  1  0
  5  6  1  0
 26 27  2  0
 27 22  1  0
  1 13  1  1
 25 28  1  0
  1  2  1  0
 28 29  1  0
 29 30  1  0
  4  7  1  6
 14 15  2  0
 30 33  1  0
 32 31  1  0
 31 29  2  0
  7  8  1  0
 15 16  1  0
 32 33  2  0
 16 19  2  0
 33 34  1  0
 34 35  2  0
 18 17  2  0
 35 36  1  0
 17 14  1  0
 36 37  2  0
 37 32  1  0
 18 19  1  0
 34 38  1  0
  1  6  1  0
 17 39  1  0
M  END
> <chembl_id>
CHEMBL1258118

$$$$

  SciTegic12201616162D

 31 34  0  0  0  0            999 V2000
    3.8942   -1.4964    0.0000 N   0  0
    5.1929   -0.7441    0.0000 C   0  0
    5.1908    0.4559    0.0000 O   0  0
    6.4942   -1.4919    0.0000 N   0  0
    7.7928   -0.7396    0.0000 C   0  0
    9.0941   -1.4873    0.0000 C   0  0
   12.9858    0.7740    0.0000 C   0  0
   12.9909   -0.7260    0.0000 C   0  0
   11.6945   -1.4805    0.0000 C   0  0
   10.3928   -0.7351    0.0000 N   0  0
   10.3877    0.7650    0.0000 C   0  0
   11.6841    1.5195    0.0000 C   0  0
   -1.2964    1.4973    0.0000 N   0  0
   -2.6111    0.7486    0.0000 C   0  0
   -2.6111   -0.7486    0.0000 N   0  0
   -1.2964   -1.4973    0.0000 C   0  0
    0.0000   -0.7486    0.0000 C   0  0
    1.2964   -1.4973    0.0000 C   0  0
    2.5929   -0.7486    0.0000 C   0  0
    2.5929    0.7486    0.0000 C   0  0
    1.2964    1.4973    0.0000 C   0  0
    0.0000    0.7486    0.0000 C   0  0
   -1.2907   -2.9981    0.0000 N   0  0
   -2.5870   -3.7544    0.0000 C   0  0
   -2.5835   -5.2544    0.0000 C   0  0
   -3.8807   -6.0076    0.0000 C   0  0
   -5.1815   -5.2608    0.0000 C   0  0
   -5.1852   -3.7608    0.0000 C   0  0
   -3.8880   -3.0076    0.0000 C   0  0
   -6.2193   -5.8633    0.0000 F   0  0
   -3.8777   -7.2076    0.0000 Cl  0  0
  1  2  1  0
  2  3  2  0
  2  4  1  0
  5  6  1  0
  7  8  1  0
  8  9  1  0
  9 10  1  0
 10 11  1  0
 11 12  1  0
  7 12  1  0
  6 10  1  0
  4  5  1  0
 13 14  1  0
 14 15  2  0
 15 16  1  0
 16 17  2  0
 17 18  1  0
 18 19  2  0
 19 20  1  0
 20 21  2  0
 21 22  1  0
 13 22  2  0
 17 22  1  0
 24 25  1  0
 25 26  2  0
 26 27  1  0
 27 28  2  0
 28 29  1  0
 24 29  2  0
 27 30  1  0
 26 31  1  0
 23 24  1  0
 16 23  1  0
  1 19  1  0
M  END
> <chembl_id>
CHEMBL3814956

$$$$

  SciTegic12201616162D

 30 33  0  0  0  0            999 V2000
    3.8942   -1.4964    0.0000 N   0  0
    5.1929   -0.7441    0.0000 C   0  0
    5.1908    0.4559    0.0000 S   0  0
    6.4942   -1.4919    0.0000 N   0  0
    7.7928   -0.7396    0.0000 C   0  0
    9.0941   -1.4873    0.0000 C   0  0
   12.9858    0.7740    0.0000 O   0  0
   12.9909   -0.7260    0.0000 C   0  0
   11.6945   -1.4805    0.0000 C   0  0
   10.3928   -0.7351    0.0000 N   0  0
   10.3877    0.7650    0.0000 C   0  0
   11.6841    1.5195    0.0000 C   0  0
   -1.2964    1.4973    0.0000 N   0  0
   -2.6111    0.7486    0.0000 C   0  0
   -2.6111   -0.7486    0.0000 N   0  0
   -1.2964   -1.4973    0.0000 C   0  0
    0.0000   -0.7486    0.0000 C   0  0
    1.2964   -1.4973    0.0000 C   0  0
    2.5929   -0.7486    0.0000 C   0  0
    2.5929    0.7486    0.0000 C   0  0
    1.2964    1.4973    0.0000 C   0  0
    0.0000    0.7486    0.0000 C   0  0
   -1.2907   -2.9981    0.0000 N   0  0
   -2.5870   -3.7544    0.0000 C   0  0
   -2.5835   -5.2544    0.0000 C   0  0
   -3.8807   -6.0076    0.0000 C   0  0
   -5.1815   -5.2608    0.0000 C   0  0
   -5.1852   -3.7608    0.0000 C   0  0
   -3.8880   -3.0076    0.0000 C   0  0
   -6.2193   -5.8633    0.0000 Cl  0  0
  1  2  1  0
  2  3  2  0
  2  4  1  0
  5  6  1  0
  7  8  1  0
  8  9  1  0
  9 10  1  0
 10 11  1  0
 11 12  1  0
  7 12  1  0
  6 10  1  0
  4  5  1  0
 13 14  1  0
 14 15  2  0
 15 16  1  0
 16 17  2  0
 17 18  1  0
 18 19  2  0
 19 20  1  0
 20 21  2  0
 21 22  1  0
 13 22  2  0
 17 22  1  0
 24 25  1  0
 25 26  2  0
 26 27  1  0
 27 28  2  0
 28 29  1  0
 24 29  2  0
 27 30  1  0
 23 24  1  0
 16 23  1  0
  1 19  1  0
M  END
> <chembl_id>
CHEMBL3814816

$$$$

  SciTegic01161211252D

 34 39  0  0  0  0            999 V2000
    5.3582   -3.3156    0.0000 N   0  0
    4.6443   -2.9018    0.0000 C   0  0
    4.6458   -2.0768    0.0000 C   0  0
    3.9292   -3.3131    0.0000 O   0  0
    5.3634   -1.6684    0.0000 C   0  0
    5.3652   -0.8441    0.0000 C   0  0
    4.6508   -0.4294    0.0000 C   0  0
    3.9332   -0.8453    0.0000 C   0  0
    3.9350   -1.6681    0.0000 C   0  0
    6.0762   -2.0838    0.0000 Cl  0  0
    4.6447   -4.5128    0.0000 C   0  0
    4.6435   -5.3402    0.0000 C   0  0
    5.3584   -5.7531    0.0000 C   0  0
    6.0749   -5.3398    0.0000 C   0  0
    6.0720   -4.5091    0.0000 C   0  0
    5.3566   -4.1000    0.0000 C   0  0
    6.7906   -5.7487    0.0000 C   0  0
    6.8782   -6.5691    0.0000 C   0  0
    7.5437   -5.4120    0.0000 N   0  0
    8.0969   -6.0241    0.0000 C   0  0
    7.6876   -6.7386    0.0000 N   0  0
    8.2406   -7.3486    0.0000 C   0  0
    8.9916   -7.0112    0.0000 C   0  0
    8.9027   -6.1926    0.0000 S   0  0
    6.2677   -7.1224    0.0000 C   0  0
    5.4818   -6.8676    0.0000 C   0  0
    4.8703   -7.4203    0.0000 C   0  0
    6.4417   -7.9254    0.0000 C   0  0
    5.8336   -8.4798    0.0000 C   0  0
    5.0398   -8.2295    0.0000 C   0  0
    4.5565   -8.9070    0.0000 N   0  0
    5.0515   -9.5762    0.0000 C   0  0
    5.8407   -9.3120    0.0000 N   0  0
    4.8034  -10.3630    0.0000 N   0  0
  2  3  1  0
  2  4  2  0
  3  5  2  0
  5  6  1  0
  6  7  2  0
  7  8  1  0
  8  9  2  0
  9  3  1  0
  5 10  1  0
  1  2  1  0
 26 27  1  0
 27 30  2  0
 18 21  1  0
 29 28  2  0
 28 25  1  0
 18 25  1  0
 29 30  1  0
 20 19  2  0
 19 17  1  0
 14 17  1  0
 20 21  1  0
 14 15  1  0
 30 31  1  0
 31 32  2  0
 32 33  1  0
 33 29  1  0
 12 13  1  0
 32 34  1  0
 15 16  2  0
 16 11  1  0
 17 18  2  0
 21 22  1  0
 22 23  2  0
 23 24  1  0
 24 20  1  0
 11 12  2  0
 13 14  2  0
 25 26  2  0
 16  1  1  0
M  END
> <chembl_id>
CHEMBL1093486

$$$$

  SciTegic04201614442D

 39 42  0  0  0  0            999 V2000
   -2.6111    0.7486    0.0000 N   0  0
   -2.6111   -0.7486    0.0000 C   0  0
   -1.2964   -1.4973    0.0000 N   0  0
   -1.2964    1.4973    0.0000 C   0  0
    0.0000    0.7486    0.0000 C   0  0
    0.0000   -0.7486    0.0000 C   0  0
    1.2964   -1.4973    0.0000 N   0  0
    1.2964    1.4973    0.0000 C   0  0
    2.5929    0.7486    0.0000 C   0  0
    2.5929   -0.7486    0.0000 C   0  0
    1.2964   -2.9980    0.0000 C   0  0
   -0.0014   -3.7503    0.0000 C   0  0
    0.0011   -5.2503    0.0000 C   0  0
    1.3014   -5.9981    0.0000 C   0  0
    2.5992   -5.2460    0.0000 C   0  0
    2.5967   -3.7460    0.0000 C   0  0
    3.9017   -5.9916    0.0000 N   0  0
    5.1991   -5.2372    0.0000 C   0  0
    6.5017   -5.9828    0.0000 C   0  0
    5.1951   -4.0372    0.0000 O   0  0
    7.5390   -5.3796    0.0000 C   0  0
   -3.9091   -1.5019    0.0000 N   0  0
   -3.9067   -3.0027    0.0000 C   0  0
   -5.2030   -3.7575    0.0000 C   0  0
   -5.1976   -5.2575    0.0000 C   0  0
   -3.8958   -6.0028    0.0000 C   0  0
   -2.5995   -5.2481    0.0000 C   0  0
   -2.6050   -3.7481    0.0000 C   0  0
   -3.8873   -7.5036    0.0000 N   0  0
   -2.5838   -8.2475    0.0000 C   0  0
    3.6321   -1.3486    0.0000 O   0  0
    1.2964    2.6973    0.0000 C   0  0
   -6.5071   -3.0146    0.0000 O   0  0
   -7.5432   -3.6199    0.0000 C   0  0
   -4.9233   -8.1092    0.0000 C   0  0
   -2.5752   -9.7483    0.0000 C   0  0
   -1.2717  -10.4921    0.0000 N   0  0
   -1.2649  -11.6921    0.0000 C   0  0
   -0.2357   -9.8865    0.0000 C   0  0
  1  2  2  0
  2  3  1  0
  3  6  2  0
  5  4  2  0
  4  1  1  0
  5  6  1  0
  5  8  1  0
  6  7  1  0
  7 10  1  0
  9  8  2  0
  9 10  1  0
 11 12  2  0
 12 13  1  0
 13 14  2  0
 14 15  1  0
 15 16  2  0
 16 11  1  0
  7 11  1  0
 15 17  1  0
 17 18  1  0
 18 19  1  0
 18 20  2  0
 19 21  2  0
  2 22  1  0
 22 23  1  0
 23 24  2  0
 24 25  1  0
 25 26  2  0
 26 27  1  0
 27 28  2  0
 28 23  1  0
 29 30  1  0
 26 29  1  0
 10 31  2  0
  8 32  1  0
 33 34  1  0
 24 33  1  0
 29 35  1  0
 30 36  1  0
 36 37  1  0
 37 38  1  0
 37 39  1  0
M  END
> <chembl_id>
CHEMBL3633151

$$$$

  SciTegic02271217242D

 36 39  0  0  0  0            999 V2000
    0.0164  -26.5402    0.0000 N   0  0
    0.7328  -26.1269    0.0000 C   0  0
    0.7300  -25.2963    0.0000 N   0  0
    0.0146  -24.8872    0.0000 C   0  0
   -0.6984  -26.1273    0.0000 C   0  0
   -0.6972  -25.2984    0.0000 C   0  0
   -1.4852  -25.0411    0.0000 N   0  0
   -1.9734  -25.7110    0.0000 C   0  0
   -1.4872  -26.3822    0.0000 C   0  0
    0.0128  -24.0622    0.0000 N   0  0
    0.7263  -23.6481    0.0000 C   0  0
    1.4386  -24.0620    0.0000 C   0  0
    2.1517  -23.6486    0.0000 C   0  0
    2.1503  -22.8228    0.0000 C   0  0
    1.4299  -22.4120    0.0000 C   0  0
    0.7198  -22.8277    0.0000 C   0  0
    2.8669  -24.0599    0.0000 Cl  0  0
    2.8633  -22.4077    0.0000 O   0  0
   -1.7389  -24.2560    0.0000 C   0  0
    3.5793  -22.8177    0.0000 C   0  0
    3.5793  -23.6428    0.0000 C   0  0
    4.2944  -24.0527    0.0000 C   0  0
    5.0084  -23.6376    0.0000 C   0  0
    5.0028  -22.8083    0.0000 C   0  0
    4.2871  -22.4022    0.0000 C   0  0
    5.7143  -22.3908    0.0000 C   0  0
    6.4317  -22.7982    0.0000 F   0  0
    5.7085  -21.5658    0.0000 F   0  0
    6.4250  -21.9708    0.0000 F   0  0
   -2.5456  -24.0833    0.0000 C   0  0
   -2.7993  -23.2983    0.0000 O   0  0
   -3.6060  -23.1255    0.0000 C   0  0
   -3.8598  -22.3405    0.0000 C   0  0
   -4.6665  -22.1677    0.0000 O   0  0
   -2.8013  -25.7114    0.0000 C   0  0
   -3.6263  -25.7102    0.0000 N   0  0
 13 17  1  0
  7  8  1  0
 14 18  1  0
  8  9  2  0
  7 19  1  0
  9  5  1  0
 18 20  1  0
  4  6  1  0
 20 21  2  0
  4 10  1  0
 21 22  1  0
  5  6  2  0
 22 23  2  0
 10 11  1  0
 23 24  1  0
  1  2  2  0
 24 25  2  0
 25 20  1  0
 11 12  2  0
 24 26  1  0
  5  1  1  0
 26 27  1  0
 12 13  1  0
 26 28  1  0
  2  3  1  0
 26 29  1  0
 13 14  2  0
 19 30  1  0
 30 31  1  0
 14 15  1  0
 31 32  1  0
  3  4  2  0
 32 33  1  0
 15 16  2  0
 33 34  1  0
 16 11  1  0
  6  7  1  0
 35 36  3  0
  8 35  1  0
M  END
> <chembl_id>
CHEMBL1923018

$$$$

  SciTegic04091414152D

 44 49  0  0  0  0            999 V2000
   32.9614  -11.3917    0.0000 N   0  0
   32.9602  -12.2191    0.0000 C   0  0
   33.6751  -12.6320    0.0000 N   0  0
   33.6732  -10.9789    0.0000 C   0  0
   34.3886  -11.3881    0.0000 C   0  0
   34.3894  -12.2149    0.0000 C   0  0
   35.1047  -12.6259    0.0000 N   0  0
   35.8198  -12.2112    0.0000 C   0  0
   35.8149  -11.3811    0.0000 N   0  0
   35.0991  -10.9740    0.0000 C   0  0
   32.2454  -12.6311    0.0000 N   0  0
   36.5359  -12.6209    0.0000 O   0  0
   36.5269  -10.9643    0.0000 C   0  0
   32.2448  -13.4561    0.0000 C   0  0
   31.5298  -13.8665    0.0000 C   0  0
   31.5288  -14.6907    0.0000 C   0  0
   32.2435  -15.1046    0.0000 C   0  0
   32.9607  -14.6882    0.0000 C   0  0
   32.9582  -13.8654    0.0000 C   0  0
   32.2440  -15.9296    0.0000 N   0  0
   31.5293  -16.3431    0.0000 C   0  0
   31.5278  -17.1645    0.0000 C   0  0
   32.2407  -17.5806    0.0000 N   0  0
   32.9568  -17.1689    0.0000 C   0  0
   32.9600  -16.3412    0.0000 C   0  0
   32.2380  -18.4055    0.0000 C   0  0
   35.1064  -13.4509    0.0000 C   0  0  1  0  0  0
   34.4422  -13.9366    0.0000 C   0  0
   34.6989  -14.7208    0.0000 C   0  0
   35.5239  -14.7191    0.0000 N   0  0
   35.7771  -13.9339    0.0000 C   0  0
   35.9311  -15.4367    0.0000 C   0  0
   35.5137  -16.1483    0.0000 C   0  0
   36.7562  -15.4424    0.0000 O   0  0
   35.9212  -16.8656    0.0000 C   0  0
   37.2412  -11.3753    0.0000 C   0  0
   37.9511  -10.9620    0.0000 C   0  0
   37.9504  -10.1365    0.0000 C   0  0
   37.2335   -9.7263    0.0000 C   0  0
   36.5175  -10.1412    0.0000 C   0  0
   30.8139  -15.1023    0.0000 C   0  0
   30.0999  -14.6889    0.0000 F   0  0
   30.8128  -15.9273    0.0000 F   0  0
   30.0962  -15.5084    0.0000 F   0  0
  1  2  2  0
  2  3  1  0
  3  6  2  0
  5  4  2  0
  4  1  1  0
  5  6  1  0
  6  7  1  0
  7  8  1  0
  8  9  1  0
  9 10  1  0
 10  5  1  0
  2 11  1  0
  8 12  2  0
  9 13  1  0
 11 14  1  0
 14 15  2  0
 15 16  1  0
 16 17  2  0
 17 18  1  0
 18 19  2  0
 19 14  1  0
 17 20  1  0
 20 21  1  0
 20 25  1  0
 21 22  1  0
 22 23  1  0
 23 24  1  0
 24 25  1  0
 23 26  1  0
 27  7  1  6
 27 28  1  0
 28 29  1  0
 29 30  1  0
 30 31  1  0
 31 27  1  0
 30 32  1  0
 32 33  1  0
 32 34  2  0
 33 35  2  0
 13 36  2  0
 13 40  1  0
 36 37  1  0
 37 38  2  0
 38 39  1  0
 39 40  2  0
 16 41  1  0
 41 42  1  0
 41 43  1  0
 41 44  1  0
M  END
> <chembl_id>
CHEMBL3086103

$$$$

  Mrv0541 04051115152D          

 34 37  0  0  0  0            999 V2000
   -5.4232   -2.8155    0.0000 O   0  0  0  0  0  0  0  0  0  0  0  0
   -4.7087   -2.4030    0.0000 C   0  0  0  0  0  0  0  0  0  0  0  0
   -3.9942   -2.8155    0.0000 C   0  0  0  0  0  0  0  0  0  0  0  0
   -3.2798   -2.4030    0.0000 O   0  0  0  0  0  0  0  0  0  0  0  0
   -2.5653   -2.8155    0.0000 C   0  0  0  0  0  0  0  0  0  0  0  0
   -1.8508   -2.4030    0.0000 C   0  0  0  0  0  0  0  0  0  0  0  0
   -1.1363   -2.8155    0.0000 N   0  0  0  0  0  0  0  0  0  0  0  0
   -1.0501   -3.6360    0.0000 C   0  0  0  0  0  0  0  0  0  0  0  0
   -0.2431   -3.8075    0.0000 C   0  0  0  0  0  0  0  0  0  0  0  0
    0.1694   -3.0931    0.0000 C   0  0  0  0  0  0  0  0  0  0  0  0
    0.9763   -2.9216    0.0000 N   0  0  0  0  0  0  0  0  0  0  0  0
    1.2313   -2.1369    0.0000 C   0  0  0  0  0  0  0  0  0  0  0  0
    0.6792   -1.5238    0.0000 N   0  0  0  0  0  0  0  0  0  0  0  0
   -0.1277   -1.6954    0.0000 C   0  0  0  0  0  0  0  0  0  0  0  0
   -0.6798   -1.0823    0.0000 N   0  0  0  0  0  0  0  0  0  0  0  0
   -0.4248   -0.2976    0.0000 C   0  0  0  0  0  0  0  0  0  0  0  0
    0.3821   -0.1261    0.0000 C   0  0  0  0  0  0  0  0  0  0  0  0
    0.6371    0.6585    0.0000 N   0  0  0  0  0  0  0  0  0  0  0  0
    0.0851    1.2716    0.0000 C   0  0  0  0  0  0  0  0  0  0  0  0
    0.3400    2.0562    0.0000 O   0  0  0  0  0  0  0  0  0  0  0  0
    1.1470    2.2277    0.0000 C   0  0  0  0  0  0  0  0  0  0  0  0
    1.6990    1.6147    0.0000 C   0  0  0  0  0  0  0  0  0  0  0  0
    2.5060    1.7862    0.0000 C   0  0  0  0  0  0  0  0  0  0  0  0
    2.7609    2.5708    0.0000 C   0  0  0  0  0  0  0  0  0  0  0  0
    2.2089    3.1839    0.0000 C   0  0  0  0  0  0  0  0  0  0  0  0
    1.4019    3.0124    0.0000 C   0  0  0  0  0  0  0  0  0  0  0  0
    2.4638    3.9685    0.0000 C   0  0  0  0  0  0  0  0  0  0  0  0
    2.7188    4.7531    0.0000 F   0  0  0  0  0  0  0  0  0  0  0  0
    3.2484    3.7136    0.0000 F   0  0  0  0  0  0  0  0  0  0  0  0
    1.6792    4.2235    0.0000 F   0  0  0  0  0  0  0  0  0  0  0  0
   -0.7219    1.1001    0.0000 C   0  0  0  0  0  0  0  0  0  0  0  0
   -1.2740    1.7132    0.0000 Cl  0  0  0  0  0  0  0  0  0  0  0  0
   -0.9769    0.3154    0.0000 C   0  0  0  0  0  0  0  0  0  0  0  0
   -0.3827   -2.4800    0.0000 C   0  0  0  0  0  0  0  0  0  0  0  0
  2  1  1  0  0  0  0
  2  3  1  0  0  0  0
  3  4  1  0  0  0  0
  5  4  1  0  0  0  0
  5  6  1  0  0  0  0
  6  7  1  0  0  0  0
 34  7  1  0  0  0  0
  8  7  1  0  0  0  0
  8  9  2  0  0  0  0
 10  9  1  0  0  0  0
 10 34  1  0  0  0  0
 10 11  2  0  0  0  0
 12 11  1  0  0  0  0
 12 13  2  0  0  0  0
 14 13  1  0  0  0  0
 14 15  1  0  0  0  0
 14 34  2  0  0  0  0
 16 15  1  0  0  0  0
 16 33  2  0  0  0  0
 16 17  1  0  0  0  0
 17 18  2  0  0  0  0
 19 18  1  0  0  0  0
 19 20  1  0  0  0  0
 19 31  2  0  0  0  0
 21 20  1  0  0  0  0
 21 26  2  0  0  0  0
 21 22  1  0  0  0  0
 22 23  2  0  0  0  0
 23 24  1  0  0  0  0
 24 25  2  0  0  0  0
 25 27  1  0  0  0  0
 25 26  1  0  0  0  0
 27 29  1  0  0  0  0
 27 28  1  0  0  0  0
 27 30  1  0  0  0  0
 31 32  1  0  0  0  0
 31 33  1  0  0  0  0
M  END
> <chembl_id>
CHEMBL1614726

$$$$

  SciTegic12201616162D

 39 43  0  0  0  0            999 V2000
    3.8942   -1.4964    0.0000 N   0  0
    5.1929   -0.7441    0.0000 C   0  0
    5.1908    0.4559    0.0000 O   0  0
    6.4942   -1.4919    0.0000 N   0  0
    7.7928   -0.7396    0.0000 C   0  0
    9.0941   -1.4873    0.0000 C   0  0
   12.9858    0.7740    0.0000 O   0  0
   12.9909   -0.7260    0.0000 C   0  0
   11.6945   -1.4805    0.0000 C   0  0
   10.3928   -0.7351    0.0000 N   0  0
   10.3877    0.7650    0.0000 C   0  0
   11.6841    1.5195    0.0000 C   0  0
   -1.2964    1.4973    0.0000 N   0  0
   -2.6111    0.7486    0.0000 C   0  0
   -2.6111   -0.7486    0.0000 N   0  0
   -1.2964   -1.4973    0.0000 C   0  0
    0.0000   -0.7486    0.0000 C   0  0
    1.2964   -1.4973    0.0000 C   0  0
    2.5929   -0.7486    0.0000 C   0  0
    2.5929    0.7486    0.0000 C   0  0
    1.2964    1.4973    0.0000 C   0  0
    0.0000    0.7486    0.0000 C   0  0
   -1.2907   -2.9981    0.0000 N   0  0
   -2.5870   -3.7544    0.0000 C   0  0
   -2.5835   -5.2544    0.0000 C   0  0
   -3.8807   -6.0076    0.0000 C   0  0
   -5.1815   -5.2608    0.0000 C   0  0
   -5.1852   -3.7608    0.0000 C   0  0
   -3.8880   -3.0076    0.0000 C   0  0
   -6.4810   -6.0117    0.0000 O   0  0
   -7.7815   -5.2626    0.0000 C   0  0
   -9.0810   -6.0135    0.0000 C   0  0
  -10.3819   -5.2667    0.0000 C   0  0
  -11.6791   -6.0199    0.0000 C   0  0
  -11.6755   -7.5199    0.0000 C   0  0
  -10.3746   -8.2667    0.0000 C   0  0
   -9.0774   -7.5136    0.0000 C   0  0
  -12.7198   -5.4224    0.0000 F   0  0
   -3.8777   -7.2076    0.0000 Cl  0  0
  1  2  1  0
  2  3  2  0
  2  4  1  0
  5  6  1  0
  7  8  1  0
  8  9  1  0
  9 10  1  0
 10 11  1  0
 11 12  1  0
  7 12  1  0
  6 10  1  0
  4  5  1  0
 13 14  1  0
 14 15  2  0
 15 16  1  0
 16 17  2  0
 17 18  1  0
 18 19  2  0
 19 20  1  0
 20 21  2  0
 21 22  1  0
 13 22  2  0
 17 22  1  0
 24 25  1  0
 25 26  2  0
 26 27  1  0
 27 28  2  0
 28 29  1  0
 24 29  2  0
 31 32  1  0
 32 33  1  0
 33 34  2  0
 34 35  1  0
 35 36  2  0
 36 37  1  0
 32 37  2  0
 34 38  1  0
 30 31  1  0
 27 30  1  0
 26 39  1  0
 23 24  1  0
 16 23  1  0
  1 19  1  0
M  END
> <chembl_id>
CHEMBL3814460

$$$$

  SciTegic12211613092D

 38 42  0  0  0  0            999 V2000
   -5.3425    5.2369    0.0000 N   0  0
   -5.2049    3.7560    0.0000 C   0  0  1  0  0  0
   -6.5563    3.1351    0.0000 C   0  0
   -7.5599    4.2500    0.0000 O   0  0
   -6.8097    5.5489    0.0000 C   0  0
   -3.9067    3.0027    0.0000 C   0  0
   -2.8664    3.6008    0.0000 O   0  0
   -3.9091    1.5019    0.0000 N   0  0
   -2.6111    0.7486    0.0000 C   0  0
   -2.6111   -0.7486    0.0000 C   0  0
   -1.2964   -1.4973    0.0000 C   0  0
   -1.2964    1.4973    0.0000 C   0  0
    0.0000    0.7486    0.0000 C   0  0
    0.0000   -0.7486    0.0000 C   0  0
    1.2964   -1.4973    0.0000 N   0  0
    2.5929   -0.7486    0.0000 C   0  0
    2.5929    0.7486    0.0000 N   0  0
    1.2964    1.4973    0.0000 C   0  0
   -3.9091   -1.5019    0.0000 O   0  0
    1.2995    2.9981    0.0000 N   0  0
    2.6003    3.7467    0.0000 C   0  0
    2.6056    5.2467    0.0000 C   0  0
    3.9072    5.9922    0.0000 C   0  0
    5.2037    5.2377    0.0000 C   0  0
    5.1985    3.7377    0.0000 C   0  0
    3.8969    2.9922    0.0000 C   0  0
   -7.2976    6.6452    0.0000 O   0  0
   -3.9067   -3.0027    0.0000 C   0  0
    6.2356    3.1342    0.0000 Cl  0  0
    6.2450    5.8341    0.0000 F   0  0
   -5.2049   -3.7560    0.0000 C   0  0
   -5.2025   -5.2568    0.0000 C   0  0
   -6.5006   -6.0101    0.0000 N   0  0
   -6.5005   -7.5101    0.0000 C   0  0
   -7.7994   -8.2603    0.0000 C   0  0
   -9.0986   -7.5105    0.0000 O   0  0
   -9.0988   -6.0105    0.0000 C   0  0
   -7.7999   -5.2603    0.0000 C   0  0
  1  2  1  0
  2  3  1  0
  3  4  1  0
  4  5  1  0
  5  1  1  0
  2  6  1  6
  6  7  2  0
  6  8  1  0
  8  9  1  0
  9 10  2  0
 10 11  1  0
 11 14  2  0
 13 12  2  0
 12  9  1  0
 13 14  1  0
 14 15  1  0
 15 16  2  0
 16 17  1  0
 17 18  2  0
 18 13  1  0
 10 19  1  0
 18 20  1  0
 20 21  1  0
 21 22  2  0
 22 23  1  0
 23 24  2  0
 24 25  1  0
 25 26  2  0
 26 21  1  0
  5 27  2  0
 19 28  1  0
 25 29  1  0
 24 30  1  0
 28 31  1  0
 31 32  1  0
 32 33  1  0
 33 34  1  0
 33 38  1  0
 34 35  1  0
 35 36  1  0
 36 37  1  0
 37 38  1  0
M  END
> <chembl_id>
CHEMBL3818289

$$$$

  SciTegic06051313552D

 25 28  0  0  0  0            999 V2000
   16.5446  -11.8038    0.0000 C   0  0
   16.5435  -12.6234    0.0000 C   0  0
   17.2515  -13.0323    0.0000 C   0  0
   17.9612  -12.6229    0.0000 C   0  0
   17.9584  -11.8002    0.0000 C   0  0
   17.2498  -11.3950    0.0000 C   0  0
   18.6390  -11.3481    0.0000 C   0  0
   19.4063  -11.6293    0.0000 C   0  0
   19.9109  -10.9864    0.0000 C   0  0
   19.4550  -10.3085    0.0000 N   0  0
   18.6694  -10.5315    0.0000 N   0  0
   19.8605   -9.5990    0.0000 C   0  0
   20.6777   -9.5955    0.0000 N   0  0
   19.4489   -8.8931    0.0000 S   0  0
   20.7254  -11.0166    0.0000 C   0  0
   21.1070  -11.7404    0.0000 C   0  0
   21.9714  -10.3532    0.0000 C   0  0
   21.1567  -10.3265    0.0000 C   0  0
   22.3580  -11.0780    0.0000 C   0  0
   21.9224  -11.7684    0.0000 C   0  0
   22.3026  -12.4888    0.0000 C   0  0
   23.1182  -12.5199    0.0000 C   0  0
   23.5521  -11.8247    0.0000 C   0  0
   23.1695  -11.1072    0.0000 C   0  0
   15.8355  -13.0314    0.0000 F   0  0
  1  2  2  0
  2  3  1  0
  3  4  2  0
  4  5  1  0
  5  6  2  0
  6  1  1  0
  7  8  1  0
  8  9  1  0
  9 10  1  0
 10 11  1  0
 11  7  2  0
  5  7  1  0
 10 12  1  0
 12 13  1  0
 12 14  2  0
 15 16  2  0
 16 20  1  0
 19 17  1  0
 17 18  2  0
 18 15  1  0
  9 15  1  0
 19 20  1  0
 20 21  2  0
 21 22  1  0
 22 23  2  0
 23 24  1  0
 24 19  2  0
  2 25  1  0
M  END
> <chembl_id>
CHEMBL2325110

$$$$

  SciTegic05221516342D

 41 45  0  0  0  0            999 V2000
    1.1542  -22.0848    0.0000 C   0  0
    1.1531  -22.9043    0.0000 C   0  0
    1.8611  -23.3133    0.0000 N   0  0
    2.5708  -22.9038    0.0000 C   0  0
    2.5679  -22.0812    0.0000 N   0  0
    1.8593  -21.6759    0.0000 C   0  0
    1.8574  -20.8588    0.0000 C   0  0
    2.5171  -20.3765    0.0000 C   0  0
    2.2622  -19.6000    0.0000 N   0  0
    1.1949  -20.3804    0.0000 C   0  0
    1.4417  -19.5993    0.0000 N   0  0
    0.8917  -18.9983    0.0000 C   0  0
    0.0919  -19.1728    0.0000 C   0  0
   -0.1587  -19.9539    0.0000 C   0  0
    0.3980  -20.5606    0.0000 C   0  0
    0.4464  -21.6763    0.0000 Cl  0  0
    3.2791  -23.3113    0.0000 N   0  0
    3.9862  -22.9016    0.0000 C   0  0
    4.6912  -23.3095    0.0000 C   0  0
    5.3978  -22.9005    0.0000 C   0  0
    5.3969  -22.0824    0.0000 C   0  0
    4.6836  -21.6751    0.0000 C   0  0
    3.9800  -22.0865    0.0000 C   0  0
    4.6913  -24.1267    0.0000 O   0  0
    3.9836  -24.5354    0.0000 C   0  0
    4.6795  -20.8579    0.0000 N   0  0
    3.9697  -20.4530    0.0000 C   0  0
    3.9655  -19.6358    0.0000 C   0  0
    3.2641  -20.8652    0.0000 O   0  0
    4.6711  -19.2236    0.0000 C   0  0
    6.1035  -21.6718    0.0000 N   0  0
    6.8106  -22.0839    0.0000 C   0  0
    7.5150  -21.6768    0.0000 C   0  0
    7.5169  -20.8592    0.0000 N   0  0
    6.8081  -20.4505    0.0000 C   0  0
    6.0975  -20.8593    0.0000 C   0  0
    8.2249  -20.4512    0.0000 C   0  0
    8.2257  -19.6340    0.0000 O   0  0
    8.9323  -20.8605    0.0000 C   0  0  1  0  0  0
    8.9316  -21.6777    0.0000 C   0  0
    9.6404  -20.4525    0.0000 N   0  0
  1  2  2  0
  2  3  1  0
  3  4  2  0
  4  5  1  0
  5  6  2  0
  6  1  1  0
  7  8  1  0
  8  9  2  0
  9 11  1  0
 10  7  2  0
  6  7  1  0
 10 11  1  0
 10 15  1  0
 11 12  1  0
 12 13  2  0
 13 14  1  0
 14 15  2  0
  1 16  1  0
  4 17  1  0
 17 18  1  0
 18 19  2  0
 19 20  1  0
 20 21  2  0
 21 22  1  0
 22 23  2  0
 23 18  1  0
 19 24  1  0
 24 25  1  0
 22 26  1  0
 26 27  1  0
 27 28  1  0
 27 29  2  0
 28 30  2  0
 21 31  1  0
 31 32  1  0
 31 36  1  0
 32 33  1  0
 33 34  1  0
 34 35  1  0
 35 36  1  0
 34 37  1  0
 37 38  2  0
 37 39  1  0
 39 40  1  6
 39 41  1  0
M  END
> <chembl_id>
CHEMBL3353402

$$$$

  SciTegic08011209522D

 44 49  0  0  0  0            999 V2000
   14.4402    2.3167    0.0000 N   0  0
   14.4391    1.4893    0.0000 C   0  0
   15.1539    1.0765    0.0000 N   0  0
   15.1521    2.7295    0.0000 C   0  0
   15.8675    2.3203    0.0000 C   0  0
   15.8709    1.4873    0.0000 C   0  0
   16.5901    1.0760    0.0000 N   0  0
   17.3105    1.4932    0.0000 C   0  0
   17.3070    2.3262    0.0000 N   0  0
   16.5832    2.7421    0.0000 C   0  0
   16.5941    0.2544    0.0000 C   0  0
   15.8791   -0.1594    0.0000 C   0  0
   15.8810   -0.9837    0.0000 C   0  0
   16.5971   -1.3951    0.0000 C   0  0
   17.3128   -0.9762    0.0000 C   0  0
   17.3074   -0.1533    0.0000 C   0  0
   13.7243    1.0774    0.0000 N   0  0
   13.7236    0.2524    0.0000 C   0  0
   13.0087   -0.1580    0.0000 C   0  0
   13.0077   -0.9822    0.0000 C   0  0
   13.7224   -1.3961    0.0000 C   0  0
   14.4396   -0.9797    0.0000 C   0  0
   14.4370   -0.1569    0.0000 C   0  0
   18.0261    1.0826    0.0000 O   0  0
   18.0298   -1.3842    0.0000 N   0  0
   18.0350   -2.2092    0.0000 C   0  0
   18.7520   -2.6172    0.0000 C   0  0
   17.3231   -2.6261    0.0000 O   0  0
   18.7572   -3.4422    0.0000 C   0  0
   13.7228   -2.2211    0.0000 N   0  0
   18.0202    2.7410    0.0000 C   0  0
   13.0059   -2.6307    0.0000 C   0  0
   13.0044   -3.4521    0.0000 C   0  0
   13.7173   -3.8681    0.0000 N   0  0
   14.4333   -3.4564    0.0000 C   0  0
   14.4365   -2.6288    0.0000 C   0  0
   13.7146   -4.6931    0.0000 C   0  0
   12.2950    0.2559    0.0000 O   0  0
   12.2966    1.0809    0.0000 C   0  0
   18.7388    2.3265    0.0000 C   0  0
   19.4515    2.7405    0.0000 C   0  0
   19.4494    3.5664    0.0000 C   0  0
   18.7286    3.9765    0.0000 C   0  0
   18.0189    3.5602    0.0000 C   0  0
 20 21  2  0
  9 10  1  0
 21 22  1  0
  5  6  1  0
 22 23  2  0
 23 18  1  0
  8 24  2  0
 11 12  2  0
 15 25  1  0
  2  3  1  0
 25 26  1  0
 12 13  1  0
 26 27  1  0
  3  6  2  0
 26 28  2  0
 13 14  2  0
 27 29  2  0
  1  2  2  0
 21 30  1  0
 14 15  1  0
  9 31  1  0
 30 32  1  0
  5  4  2  0
 15 16  2  0
 16 11  1  0
  7 11  1  0
  4  1  1  0
 30 36  1  0
 32 33  1  0
 33 34  1  0
 34 35  1  0
 35 36  1  0
  2 17  1  0
 34 37  1  0
  5 10  1  0
 19 38  1  0
 17 18  1  0
 38 39  1  0
  6  7  1  0
 31 40  2  0
 18 19  2  0
 40 41  1  0
  7  8  1  0
 41 42  2  0
 19 20  1  0
 42 43  1  0
  8  9  1  0
 43 44  2  0
 44 31  1  0
M  END
> <chembl_id>
CHEMBL2029436

$$$$

  SciTegic12201611512D

 29 33  0  0  0  0            999 V2000
   -2.1332   -2.2973    0.0000 N   0  0
   -3.4277   -1.5498    0.0000 C   0  0
   -3.4277    0.0000    0.0000 N   0  0
   -2.1332    0.6928    0.0000 C   0  0
   -0.8205    0.0000    0.0000 C   0  0
    0.4558    0.6928    0.0000 C   0  0
    1.7503    0.0000    0.0000 C   0  0
    1.7503   -1.5498    0.0000 C   0  0
    0.4558   -2.2973    0.0000 C   0  0
   -0.8205   -1.5498    0.0000 C   0  0
    0.4558    2.1879    0.0000 O   0  0
    3.0631    0.6928    0.0000 O   0  0
    3.0631    2.1879    0.0000 C   0  0
    1.7503    2.9537    0.0000 C   0  0
   -2.1454    2.1947    0.0000 N   0  0
    3.0410   -2.3153    0.0000 O   0  0
    3.0239   -3.8160    0.0000 C   0  0
   -3.4508    2.9353    0.0000 C   0  0
   -3.4653    4.4352    0.0000 C   0  0
   -4.7714    5.1728    0.0000 C   0  0
   -6.0632    4.4104    0.0000 C   0  0
   -6.0489    2.9104    0.0000 C   0  0
   -4.7427    2.1729    0.0000 C   0  0
   -7.1082    5.0004    0.0000 F   0  0
   -4.7829    6.3727    0.0000 Cl  0  0
    4.2260   -4.6919    0.0000 C   0  0
    3.7436   -6.1122    0.0000 C   0  0
    2.2437   -6.0923    0.0000 O   0  0
    1.7991   -4.6597    0.0000 C   0  0
  1  2  1  0
  2  3  2  0
  3  4  1  0
  4  5  2  0
  5  6  1  0
  6  7  2  0
  7  8  1  0
  8  9  2  0
  9 10  1  0
  1 10  2  0
  5 10  1  0
 12 13  1  0
 13 14  1  0
 11 14  1  0
  6 11  1  0
  7 12  1  0
  4 15  1  0
 16 17  1  0
  8 16  1  0
 18 19  1  0
 19 20  2  0
 20 21  1  0
 21 22  2  0
 22 23  1  0
 18 23  2  0
 21 24  1  0
 20 25  1  0
 15 18  1  0
 17 26  1  0
 26 27  1  0
 27 28  1  0
 28 29  1  0
 29 17  1  0
M  END
> <chembl_id>
CHEMBL3805782

$$$$

  SciTegic04091414352D

 37 41  0  0  0  0            999 V2000
   10.7277   -6.1662    0.0000 N   0  0
   11.4299   -6.5851    0.0000 C   0  0
   11.4183   -7.4026    0.0000 O   0  0
   12.1438   -6.1864    0.0000 N   0  0
   12.8460   -6.6052    0.0000 C   0  0
   13.5599   -6.2065    0.0000 C   0  0
   15.6666   -7.4632    0.0000 O   0  0
   14.9527   -7.8619    0.0000 C   0  0
   14.2505   -7.4430    0.0000 C   0  0
   14.2621   -6.6254    0.0000 N   0  0
   14.9760   -6.2267    0.0000 C   0  0
   15.6782   -6.6456    0.0000 C   0  0
    7.8722   -7.7610    0.0000 N   0  0
    7.1700   -7.3421    0.0000 C   0  0
    7.1816   -6.5245    0.0000 N   0  0
    7.8955   -6.1258    0.0000 C   0  0
    8.5977   -6.5447    0.0000 C   0  0
    9.3116   -6.1460    0.0000 C   0  0
   10.0138   -6.5649    0.0000 C   0  0
   10.0022   -7.3825    0.0000 C   0  0
    9.2883   -7.7812    0.0000 C   0  0
    8.5861   -7.3623    0.0000 C   0  0
   10.7044   -7.8013    0.0000 O   0  0
   10.2660   -9.8712    0.0000 O   0  0
   10.0245   -9.0901    0.0000 C   0  0
   10.6927   -8.6189    0.0000 C   0  0  2  0  0  0
   11.3473   -9.1089    0.0000 C   0  0
   11.0836   -9.8829    0.0000 C   0  0
    7.9071   -5.3082    0.0000 N   0  0
    7.2049   -4.8894    0.0000 C   0  0
    6.4910   -5.2881    0.0000 C   0  0
    5.7888   -4.8692    0.0000 C   0  0
    5.8005   -4.0516    0.0000 C   0  0
    6.5143   -3.6529    0.0000 C   0  0
    7.2166   -4.0718    0.0000 C   0  0
    5.0982   -3.6327    0.0000 F   0  0
    5.0749   -5.2679    0.0000 Cl  0  0
  1  2  1  0
  2  3  2  0
  2  4  1  0
  5  6  1  0
  7  8  1  0
  8  9  1  0
  9 10  1  0
 10 11  1  0
 11 12  1  0
  7 12  1  0
  6 10  1  0
  4  5  1  0
 13 14  1  0
 14 15  2  0
 15 16  1  0
 16 17  2  0
 17 18  1  0
 18 19  2  0
 19 20  1  0
 20 21  2  0
 21 22  1  0
 13 22  2  0
 17 22  1  0
 24 25  1  0
 25 26  1  0
 26 27  1  0
 27 28  1  0
 24 28  1  0
 26 23  1  1
 20 23  1  0
 30 31  1  0
 31 32  2  0
 32 33  1  0
 33 34  2  0
 34 35  1  0
 30 35  2  0
 33 36  1  0
 32 37  1  0
 29 30  1  0
 16 29  1  0
  1 19  1  0
M  END
> <chembl_id>
CHEMBL3092310

$$$$

  SciTegic12201611502D

 30 33  0  0  0  0            999 V2000
   -2.1332   -2.2973    0.0000 N   0  0
   -3.4277   -1.5498    0.0000 C   0  0
   -3.4277    0.0000    0.0000 N   0  0
   -2.1332    0.6928    0.0000 C   0  0
   -0.8205    0.0000    0.0000 C   0  0
    0.4558    0.6928    0.0000 C   0  0
    1.7503    0.0000    0.0000 C   0  0
    1.7503   -1.5498    0.0000 C   0  0
    0.4558   -2.2973    0.0000 C   0  0
   -0.8205   -1.5498    0.0000 C   0  0
    0.4558    2.1879    0.0000 O   0  0
    3.0631    0.6928    0.0000 O   0  0
    3.0631    2.1879    0.0000 C   0  0
    1.7503    2.9537    0.0000 C   0  0
   -2.1454    2.1947    0.0000 N   0  0
    3.0410   -2.3153    0.0000 O   0  0
    3.0239   -3.8160    0.0000 C   0  0
    4.3146   -4.5820    0.0000 C   0  0
    4.2976   -6.0827    0.0000 O   0  0
    5.3296   -6.6951    0.0000 C   0  0
   -3.4508    2.9353    0.0000 C   0  0
   -3.4653    4.4352    0.0000 C   0  0
   -4.7714    5.1728    0.0000 C   0  0
   -6.0632    4.4104    0.0000 C   0  0
   -6.0489    2.9104    0.0000 C   0  0
   -4.7427    2.1729    0.0000 C   0  0
   -4.7827    6.6736    0.0000 N   0  3
   -3.7484    7.2820    0.0000 O   0  0
   -5.8266    7.2654    0.0000 O   0  5
   -7.1082    5.0004    0.0000 F   0  0
  1  2  1  0
  2  3  2  0
  3  4  1  0
  4  5  2  0
  5  6  1  0
  6  7  2  0
  7  8  1  0
  8  9  2  0
  9 10  1  0
  1 10  2  0
  5 10  1  0
 12 13  1  0
 13 14  1  0
 11 14  1  0
  6 11  1  0
  7 12  1  0
  4 15  1  0
 17 18  1  0
 16 17  1  0
 19 20  1  0
 18 19  1  0
  8 16  1  0
 21 22  1  0
 22 23  2  0
 23 24  1  0
 24 25  2  0
 25 26  1  0
 21 26  2  0
 27 28  2  0
 27 29  1  0
 23 27  1  0
 24 30  1  0
 15 21  1  0
M  CHG  2  27   1  29  -1
M  END
> <chembl_id>
CHEMBL3805333

$$$$

  SciTegic12091614152D

 35 37  0  0  0  0            999 V2000
    1.2990   -0.7500    0.0000 C   0  0
    1.2990    0.7500    0.0000 C   0  0
    0.0000    1.5000    0.0000 C   0  0
   -1.2990    0.7500    0.0000 C   0  0
   -1.2990   -0.7500    0.0000 C   0  0
    0.0000   -1.5000    0.0000 C   0  0
    2.5973   -1.5031    0.0000 N   0  0
   -0.0031    3.0008    0.0000 N   0  0
    1.2883   -5.2495    0.0000 C   0  0
    1.2935   -3.7495    0.0000 N   0  0
    2.5951   -3.0039    0.0000 C   0  0
    3.8915   -3.7585    0.0000 C   0  0
    3.8864   -5.2585    0.0000 C   0  0
    2.5847   -6.0040    0.0000 N   0  0
   -0.0125   -5.9981    0.0000 N   0  0
   -0.0155   -7.4989    0.0000 N   0  0
   -1.3163   -8.2475    0.0000 C   0  0
   -1.3194   -9.7484    0.0000 C   0  0
    4.9329   -3.1621    0.0000 Cl  0  0
   -1.3039    3.7494    0.0000 C   0  0
   -2.3421    3.1476    0.0000 O   0  0
   -1.3070    5.2502    0.0000 C   0  0
   -2.6078    5.9988    0.0000 C   0  0
   -2.6109    7.4996    0.0000 C   0  0
   -3.9118    8.2481    0.0000 N   0  0
   -3.9142    9.4481    0.0000 C   0  0
   -4.9499    7.6463    0.0000 C   0  0
   -2.6184  -10.4985    0.0000 C   0  0
   -2.6184  -11.9985    0.0000 C   0  0
   -1.3193  -12.7484    0.0000 C   0  0
   -0.0203  -11.9984    0.0000 C   0  0
   -0.0203  -10.4984    0.0000 C   0  0
   -2.3545   -7.6458    0.0000 C   0  0
   -1.3162  -14.2493    0.0000 O   0  0
   -0.2762  -14.8478    0.0000 C   0  0
  1  2  1  0
  2  3  2  0
  3  4  1  0
  4  5  2  0
  5  6  1  0
  1  6  2  0
  1  7  1  0
  3  8  1  0
  9 10  1  0
 10 11  2  0
 11 12  1  0
 12 13  2  0
 13 14  1  0
  9 14  2  0
 15 16  1  0
 17 18  1  0
 16 17  2  0
  9 15  1  0
 12 19  1  0
  7 11  1  0
  8 20  1  0
 20 21  2  0
 20 22  1  0
 22 23  2  0
 23 24  1  0
 24 25  1  0
 25 26  1  0
 25 27  1  0
 18 28  2  0
 28 29  1  0
 29 30  2  0
 30 31  1  0
 31 32  2  0
 32 18  1  0
 17 33  1  0
 34 35  1  0
 30 34  1  0
M  END
> <chembl_id>
CHEMBL3739508

$$$$

  SciTegic09081514182D

 39 40  0  0  0  0            999 V2000
    1.2990   -0.7500    0.0000 C   0  0
    1.2990    0.7500    0.0000 C   0  0
    0.0000    1.5000    0.0000 C   0  0
   -1.2990    0.7500    0.0000 C   0  0
   -1.2990   -0.7500    0.0000 C   0  0
    0.0000   -1.5000    0.0000 C   0  0
   -2.5972   -1.5031    0.0000 C   0  0
   -2.5951   -3.0039    0.0000 C   0  0
   -3.8933   -3.7570    0.0000 C   0  0
   -3.8912   -5.2578    0.0000 C   0  0
   -4.9336   -3.1588    0.0000 O   0  0
   -5.1894   -6.0109    0.0000 C   0  0
   -5.1872   -7.5117    0.0000 C   0  0
   -6.2296   -5.4127    0.0000 O   0  0
   -6.4854   -8.2648    0.0000 C   0  0
   -6.4833   -9.7657    0.0000 C   0  0
   -7.7797  -10.5203    0.0000 C   0  0
   -7.7745  -12.0202    0.0000 C   0  0
   -6.4729  -12.7657    0.0000 C   0  0
   -5.1764  -12.0112    0.0000 C   0  0
   -5.1816  -10.5113    0.0000 C   0  0
    2.5973   -1.5031    0.0000 O   0  0
    2.5972    1.5031    0.0000 O   0  0
   -6.4708  -14.2666    0.0000 O   0  0
   -3.8726  -12.7545    0.0000 O   0  0
    2.5956   -2.7031    0.0000 C   0  0
    2.5951    3.0039    0.0000 C   0  0
   -2.8363  -12.1494    0.0000 C   0  0
   -7.7690  -15.0196    0.0000 C   0  0
    3.8933    3.7570    0.0000 C   0  0
    3.8912    5.2578    0.0000 C   0  0
    5.1894    6.0109    0.0000 C   0  0
    5.1876    7.2109    0.0000 O   0  0
    6.2296    5.4128    0.0000 O   0  0
   -7.7669  -16.5205    0.0000 C   0  0
   -9.0651  -17.2735    0.0000 C   0  0
   -9.0630  -18.7743    0.0000 C   0  0
   -8.0227  -19.3725    0.0000 O   0  0
  -10.1010  -19.3765    0.0000 O   0  0
  1  2  2  0
  2  3  1  0
  3  4  2  0
  4  5  1  0
  5  6  2  0
  6  1  1  0
  5  7  1  0
  7  8  2  0
  8  9  1  0
  9 10  2  0
  9 11  1  0
 10 12  1  0
 12 13  1  0
 12 14  2  0
 13 15  2  0
 15 16  1  0
 16 17  2  0
 17 18  1  0
 18 19  2  0
 19 20  1  0
 20 21  2  0
 21 16  1  0
  1 22  1  0
  2 23  1  0
 19 24  1  0
 20 25  1  0
 22 26  1  0
 23 27  1  0
 25 28  1  0
 24 29  1  0
 27 30  1  0
 30 31  1  0
 31 32  1  0
 32 33  2  0
 32 34  1  0
 29 35  1  0
 35 36  1  0
 36 37  1  0
 37 38  1  0
 37 39  2  0
M  END
> <chembl_id>
CHEMBL3402861

$$$$

  SciTegic01181116592D

 35 39  0  0  0  0            999 V2000
   -0.5295  -15.6675    0.0000 N   0  0
    0.1870  -15.2542    0.0000 C   0  0
    0.1841  -14.4234    0.0000 N   0  0
   -0.5313  -14.0143    0.0000 C   0  0
   -0.5338  -13.1891    0.0000 N   0  0
   -1.2445  -15.2546    0.0000 C   0  0
   -1.2478  -14.4301    0.0000 C   0  0
   -2.0275  -15.5125    0.0000 S   0  0
   -2.5149  -14.8475    0.0000 C   0  0
   -2.0331  -14.1803    0.0000 C   0  0
   -2.3682  -13.4336    0.0000 C   0  0
   -3.1862  -13.3479    0.0000 C   0  0
   -3.6678  -14.0147    0.0000 N   0  0
   -3.3317  -14.7681    0.0000 C   0  0
    0.1795  -12.7745    0.0000 C   0  0  1  0  0  0
    0.8953  -13.1848    0.0000 C   0  0
    0.1771  -11.9494    0.0000 C   0  0
    0.8956  -14.0074    0.0000 C   0  0
    1.6106  -14.4176    0.0000 C   0  0
    2.3249  -14.0030    0.0000 C   0  0
    2.3198  -13.1735    0.0000 C   0  0
    1.6042  -12.7669    0.0000 C   0  0
   -4.4965  -14.0146    0.0000 C   0  0
   -4.9091  -14.7291    0.0000 O   0  0
   -4.9090  -13.3000    0.0000 C   0  0
   -4.4964  -12.5855    0.0000 C   0  0
    0.8904  -11.5346    0.0000 O   0  0
   -4.9088  -11.8708    0.0000 C   0  0
   -4.4962  -11.1562    0.0000 N   0  0
   -3.6705  -11.1586    0.0000 C   0  0
   -3.2581  -10.4482    0.0000 C   0  0
   -3.6670   -9.7312    0.0000 N   0  0
   -4.4931   -9.7291    0.0000 C   0  0
   -4.9102  -10.4441    0.0000 C   0  0
   -3.2517   -9.0182    0.0000 C   0  0
  7 10  1  0
 15 17  1  6
  9  8  1  0
 16 18  2  0
  8  6  1  0
 18 19  1  0
  9 10  2  0
 19 20  2  0
  3  4  2  0
 20 21  1  0
  4  7  1  0
 21 22  2  0
 22 16  1  0
  1  2  2  0
 13 23  1  0
  4  5  1  0
 23 24  2  0
  6  7  2  0
 23 25  1  0
  6  1  1  0
 25 26  2  0
  9 14  1  0
 17 27  1  0
 10 11  1  0
 26 28  1  0
 11 12  1  0
 28 29  1  0
 29 30  1  0
 12 13  1  0
 13 14  1  0
  2  3  1  0
  5 15  1  0
 29 34  1  0
 30 31  1  0
 31 32  1  0
 32 33  1  0
 33 34  1  0
 15 16  1  0
 32 35  1  0
M  END
> <chembl_id>
CHEMBL1271507

$$$$

  SciTegic02271217242D

 28 31  0  0  0  0            999 V2000
   11.3206   -1.8652    0.0000 N   0  0
   12.0370   -1.4519    0.0000 C   0  0
   12.0341   -0.6213    0.0000 N   0  0
   11.3188   -0.2122    0.0000 C   0  0
   10.6057   -1.4523    0.0000 C   0  0
   10.6070   -0.6234    0.0000 C   0  0
    9.8190   -0.3661    0.0000 N   0  0
    9.3307   -1.0360    0.0000 C   0  0
    9.8170   -1.7072    0.0000 C   0  0
   11.3169    0.6128    0.0000 N   0  0
   12.0305    1.0269    0.0000 C   0  0
   12.7428    0.6130    0.0000 C   0  0
   13.4559    1.0264    0.0000 C   0  0
   13.4545    1.8522    0.0000 C   0  0
   12.7341    2.2630    0.0000 C   0  0
   12.0240    1.8473    0.0000 C   0  0
   14.1710    0.6151    0.0000 Cl  0  0
   14.1675    2.2673    0.0000 O   0  0
   14.8834    1.8573    0.0000 C   0  0
   14.8835    1.0322    0.0000 C   0  0
   15.5985    0.6223    0.0000 C   0  0
   16.3125    1.0374    0.0000 C   0  0
   16.3070    1.8667    0.0000 C   0  0
   15.5913    2.2728    0.0000 C   0  0
   17.0185    2.2842    0.0000 C   0  0
   17.7359    1.8768    0.0000 F   0  0
   17.0127    3.1092    0.0000 F   0  0
   17.7292    2.7042    0.0000 F   0  0
  2  3  1  0
 13 14  2  0
 14 15  1  0
  3  4  2  0
 15 16  2  0
 16 11  1  0
  6  7  1  0
 13 17  1  0
  7  8  1  0
 14 18  1  0
  8  9  2  0
 18 19  1  0
  9  5  1  0
 19 20  2  0
  4  6  1  0
 20 21  1  0
  4 10  1  0
 21 22  2  0
  5  6  2  0
 22 23  1  0
 10 11  1  0
 23 24  2  0
 24 19  1  0
  1  2  2  0
 23 25  1  0
 11 12  2  0
 25 26  1  0
  5  1  1  0
 25 27  1  0
 12 13  1  0
 25 28  1  0
M  END
> <chembl_id>
CHEMBL1922905

$$$$

  SciTegic06231415592D

 38 40  0  0  0  0            999 V2000
   -1.2964    1.4973    0.0000 C   0  0
   -2.6111    0.7486    0.0000 N   0  0
   -2.6111   -0.7486    0.0000 C   0  0
   -1.2964   -1.4973    0.0000 C   0  0
    0.0000   -0.7486    0.0000 C   0  0
    1.2964   -1.4973    0.0000 C   0  0
    2.5929   -0.7486    0.0000 C   0  0
    2.5929    0.7486    0.0000 C   0  0
    1.2964    1.4973    0.0000 C   0  0
    0.0000    0.7486    0.0000 C   0  0
   -1.2907    2.9981    0.0000 N   0  0
    1.2995   -2.9981    0.0000 N   0  0
    3.6321   -1.3486    0.0000 C   0  0
   -2.5870    3.7544    0.0000 C   0  0
   -2.5835    5.2544    0.0000 C   0  0
   -3.8807    6.0076    0.0000 C   0  0
   -5.1815    5.2608    0.0000 C   0  0
   -5.1852    3.7608    0.0000 C   0  0
   -3.8880    3.0076    0.0000 C   0  0
   -6.2193    5.8633    0.0000 Cl  0  0
    2.6003   -3.7467    0.0000 C   0  0
    2.6056   -5.2467    0.0000 C   0  0
    3.9072   -5.9922    0.0000 C   0  0
    5.2037   -5.2377    0.0000 C   0  0
    5.1985   -3.7377    0.0000 C   0  0
    3.8969   -2.9922    0.0000 N   0  0
   -0.3167   -3.8022    0.0000 N   0  0
   -1.8122   -3.6553    0.0000 C   0  0
   -2.4007   -5.0058    0.0000 N   0  0
   -1.2948   -6.0093    0.0000 C   0  0
   -1.3105   -7.5132    0.0000 N   0  0
    0.0091   -8.2670    0.0000 C   0  0
    1.3037   -7.5193    0.0000 N   0  0
    1.3086   -6.0016    0.0000 C   0  0
   -0.0002   -5.2616    0.0000 C   0  0
   12.7037   -1.1263    0.0000 Cl  0  0
   10.2037   -1.1263    0.0000 Cl  0  0
    7.7037   -1.1263    0.0000 Cl  0  0
  1  2  2  0
  2  3  1  0
  3  4  2  0
  4  5  1  0
  5  6  1  0
  6  7  2  0
  7  8  1  0
  8  9  2  0
  9 10  1  0
  1 10  1  0
  5 10  2  0
  1 11  1  0
  6 12  1  0
  7 13  1  0
 14 15  1  0
 15 16  2  0
 16 17  1  0
 17 18  2  0
 18 19  1  0
 14 19  2  0
 17 20  1  0
 11 14  1  0
 21 22  1  0
 22 23  2  0
 23 24  1  0
 24 25  2  0
 25 26  1  0
 21 26  2  0
 27 28  2  0
 28 29  1  0
 29 30  1  0
 30 31  2  0
 31 32  1  0
 32 33  2  0
 33 34  1  0
 34 35  2  0
 27 35  1  0
 30 35  1  0
 22 34  1  0
 12 21  1  0
M  END
> <chembl_id>
CHEMBL3215582

$$$$

  SciTegic12201611502D

 26 29  0  0  0  0            999 V2000
   -2.1332   -2.2973    0.0000 N   0  0
   -3.4277   -1.5498    0.0000 C   0  0
   -3.4277    0.0000    0.0000 N   0  0
   -2.1332    0.6928    0.0000 C   0  0
   -0.8205    0.0000    0.0000 C   0  0
    0.4558    0.6928    0.0000 C   0  0
    1.7503    0.0000    0.0000 C   0  0
    1.7503   -1.5498    0.0000 C   0  0
    0.4558   -2.2973    0.0000 C   0  0
   -0.8205   -1.5498    0.0000 C   0  0
    0.4558    2.1879    0.0000 O   0  0
    3.0631    0.6928    0.0000 O   0  0
    3.0631    2.1879    0.0000 C   0  0
    1.7503    2.9537    0.0000 C   0  0
   -2.1454    2.1947    0.0000 N   0  0
   -3.4508    2.9353    0.0000 C   0  0
   -3.4653    4.4352    0.0000 C   0  0
   -4.7714    5.1728    0.0000 C   0  0
   -6.0632    4.4104    0.0000 C   0  0
   -6.0489    2.9104    0.0000 C   0  0
   -4.7427    2.1729    0.0000 C   0  0
   -4.7858    6.6735    0.0000 C   0  0
   -4.7973    7.8735    0.0000 C   0  0
    3.0410   -2.3153    0.0000 O   0  0
    3.0239   -3.8160    0.0000 C   0  0
    4.0559   -4.4284    0.0000 C   0  0
  1  2  1  0
  2  3  2  0
  3  4  1  0
  4  5  2  0
  5  6  1  0
  6  7  2  0
  7  8  1  0
  8  9  2  0
  9 10  1  0
  1 10  2  0
  5 10  1  0
 12 13  1  0
 13 14  1  0
 11 14  1  0
  6 11  1  0
  7 12  1  0
  4 15  1  0
 16 17  1  0
 17 18  2  0
 18 19  1  0
 19 20  2  0
 20 21  1  0
 16 21  2  0
 22 23  3  0
 18 22  1  0
 15 16  1  0
 25 26  1  0
 24 25  1  0
  8 24  1  0
M  END
> <chembl_id>
CHEMBL3805039

$$$$

  SciTegic04201609482D

 34 37  0  0  0  0            999 V2000
   -4.1157    6.0164    0.0000 C   0  0
   -5.4175    5.2712    0.0000 C   0  0
   -5.4230    3.7712    0.0000 N   0  0
   -4.1268    3.0163    0.0000 C   0  0
   -2.8250    3.7616    0.0000 N   0  0
   -2.8195    5.2616    0.0000 C   0  0
   -4.1113    7.2164    0.0000 Cl  0  0
   -4.1292    1.5155    0.0000 N   0  0
   -1.5154    6.0046    0.0000 N   0  0
   -0.2195    5.2476    0.0000 C   0  0
   -0.2301    3.7475    0.0000 C   0  0
    1.0635    2.9883    0.0000 C   0  0
    2.3679    3.7290    0.0000 C   0  0
    2.3786    5.2290    0.0000 C   0  0
    1.0849    5.9882    0.0000 C   0  0
    1.0957    7.4890    0.0000 S   0  0
    2.4003    8.2309    0.0000 C   0  0
    2.4089    9.4309    0.0000 C   0  0
    3.4354    7.6238    0.0000 C   0  0
    1.1037    8.6890    0.0000 O   0  0
    0.0606    8.0961    0.0000 O   0  0
   -2.8315    0.7623    0.0000 C   0  0
   -2.8315   -0.7623    0.0000 C   0  0
   -1.4884   -1.5247    0.0000 C   0  0
   -1.4884    1.5247    0.0000 C   0  0
    0.7442   -1.6517    0.0000 C   0  0
    2.2325   -1.4158    0.0000 C   0  0
    2.9404    0.0000    0.0000 N   0  0
    0.0000   -0.7623    0.0000 C   0  0
    0.0000    0.7623    0.0000 C   0  0
    0.7805    1.6880    0.0000 C   0  0
    2.2507    1.3976    0.0000 C   0  0
   -4.1292   -1.5155    0.0000 O   0  0
   -4.1273   -2.7155    0.0000 C   0  0
  1  2  2  0
  2  3  1  0
  3  4  2  0
  4  5  1  0
  5  6  2  0
  6  1  1  0
  1  7  1  0
  4  8  1  0
  6  9  1  0
  9 10  1  0
 10 11  2  0
 11 12  1  0
 12 13  2  0
 13 14  1  0
 14 15  2  0
 15 10  1  0
 15 16  1  0
 16 17  1  0
 17 18  1  0
 17 19  1  0
 16 20  2  0
 16 21  2  0
  8 22  1  0
 22 23  2  0
 23 24  1  0
 24 29  2  0
 30 25  2  0
 25 22  1  0
 26 27  1  0
 27 28  1  0
 26 29  1  0
 30 31  1  0
 31 32  1  0
 32 28  1  0
 29 30  1  0
 23 33  1  0
 33 34  1  0
M  END
> <chembl_id>
CHEMBL3608524

$$$$

  SciTegic12211613092D

 39 43  0  0  0  0            999 V2000
   -5.3425    5.2369    0.0000 N   0  0
   -5.2049    3.7560    0.0000 C   0  0  1  0  0  0
   -6.5563    3.1351    0.0000 C   0  0
   -7.5599    4.2500    0.0000 O   0  0
   -6.8097    5.5489    0.0000 C   0  0
   -3.9067    3.0027    0.0000 C   0  0
   -2.8664    3.6008    0.0000 O   0  0
   -3.9091    1.5019    0.0000 N   0  0
   -2.6111    0.7486    0.0000 C   0  0
   -2.6111   -0.7486    0.0000 C   0  0
   -1.2964   -1.4973    0.0000 C   0  0
   -1.2964    1.4973    0.0000 C   0  0
    0.0000    0.7486    0.0000 C   0  0
    0.0000   -0.7486    0.0000 C   0  0
    1.2964   -1.4973    0.0000 N   0  0
    2.5929   -0.7486    0.0000 C   0  0
    2.5929    0.7486    0.0000 N   0  0
    1.2964    1.4973    0.0000 C   0  0
   -3.9091   -1.5019    0.0000 O   0  0
    1.2995    2.9981    0.0000 N   0  0
    2.6003    3.7467    0.0000 C   0  0
    2.6056    5.2467    0.0000 C   0  0
    3.9072    5.9922    0.0000 C   0  0
    5.2037    5.2377    0.0000 C   0  0
    5.1985    3.7377    0.0000 C   0  0
    3.8969    2.9922    0.0000 C   0  0
   -7.2976    6.6452    0.0000 O   0  0
   -3.9067   -3.0027    0.0000 C   0  0
   -4.9447   -3.6050    0.0000 C   0  0
    6.2356    3.1342    0.0000 Cl  0  0
    6.5045    5.9863    0.0000 O   0  0
    6.5075    7.4872    0.0000 C   0  0
    7.8083    8.2357    0.0000 C   0  0
    7.8136    9.7358    0.0000 C   0  0
    9.1152   10.4813    0.0000 C   0  0
   10.4116    9.7268    0.0000 C   0  0
   10.4065    8.2268    0.0000 C   0  0
    9.1049    7.4813    0.0000 C   0  0
    9.1193   11.6813    0.0000 F   0  0
  1  2  1  0
  2  3  1  0
  3  4  1  0
  4  5  1  0
  5  1  1  0
  2  6  1  6
  6  7  2  0
  6  8  1  0
  8  9  1  0
  9 10  2  0
 10 11  1  0
 11 14  2  0
 13 12  2  0
 12  9  1  0
 13 14  1  0
 14 15  1  0
 15 16  2  0
 16 17  1  0
 17 18  2  0
 18 13  1  0
 10 19  1  0
 18 20  1  0
 20 21  1  0
 21 22  2  0
 22 23  1  0
 23 24  2  0
 24 25  1  0
 25 26  2  0
 26 21  1  0
  5 27  2  0
 19 28  1  0
 28 29  1  0
 25 30  1  0
 24 31  1  0
 31 32  1  0
 32 33  1  0
 33 34  2  0
 34 35  1  0
 35 36  2  0
 36 37  1  0
 37 38  2  0
 38 33  1  0
 35 39  1  0
M  END
> <chembl_id>
CHEMBL3818115

$$$$

  SciTegic10311316282D

 36 41  0  0  0  0            999 V2000
   24.3530   -6.8799    0.0000 N   0  0
   24.3529   -7.7072    0.0000 C   0  0
   25.0682   -8.1192    0.0000 N   0  0
   25.0643   -6.4662    0.0000 C   0  0
   25.7802   -6.8744    0.0000 C   0  0
   25.7815   -7.7009    0.0000 C   0  0
   26.5679   -7.9550    0.0000 N   0  0
   27.0527   -7.2856    0.0000 C   0  0
   26.5659   -6.6178    0.0000 C   0  0
   26.8282   -8.7413    0.0000 C   0  0
   26.3444   -9.4095    0.0000 C   0  0
   26.8303  -10.0762    0.0000 C   0  0
   27.6146   -9.8200    0.0000 C   0  0
   27.6132   -8.9950    0.0000 C   0  0
   25.0608   -5.6412    0.0000 N   0  0
   26.8196   -5.8328    0.0000 C   0  0
   27.6032   -5.5748    0.0000 N   0  0
   26.3331   -5.1643    0.0000 N   0  0
   26.8169   -4.4960    0.0000 C   0  0
   27.5978   -4.7500    0.0000 C   0  0
   28.2061   -4.2013    0.0000 C   0  0
   28.0348   -3.3984    0.0000 C   0  0
   27.2497   -3.1472    0.0000 C   0  0
   26.6447   -3.6977    0.0000 C   0  0
   28.6464   -2.8448    0.0000 N   0  0
   29.4317   -3.0976    0.0000 C   0  0
   30.0433   -2.5439    0.0000 N   0  0
   29.6054   -3.9041    0.0000 O   0  0
   30.8286   -2.7968    0.0000 C   0  0
   30.9985   -3.6019    0.0000 C   0  0
   31.7829   -3.8548    0.0000 C   0  0
   32.3955   -3.3009    0.0000 C   0  0
   32.2184   -2.4908    0.0000 C   0  0
   31.4341   -2.2416    0.0000 C   0  0
   30.3856   -4.1541    0.0000 F   0  0
   31.2563   -1.4360    0.0000 F   0  0
  1  2  2  0
  2  3  1  0
  3  6  2  0
  5  4  2  0
  4  1  1  0
  5  6  1  0
  6  7  1  0
  7  8  1  0
  8  9  2  0
  9  5  1  0
 10 11  1  0
 11 12  1  0
 12 13  1  0
 13 14  1  0
 14 10  1  0
  7 10  1  0
  4 15  1  0
  9 16  1  0
 16 17  1  0
 17 20  1  0
 19 18  1  0
 18 16  2  0
 19 20  2  0
 20 21  1  0
 21 22  2  0
 22 23  1  0
 23 24  2  0
 24 19  1  0
 22 25  1  0
 25 26  1  0
 26 27  1  0
 26 28  2  0
 27 29  1  0
 29 30  2  0
 30 31  1  0
 31 32  2  0
 32 33  1  0
 33 34  2  0
 34 29  1  0
 30 35  1  0
 34 36  1  0
M  END
> <chembl_id>
CHEMBL2387005

$$$$

  SciTegic01061414252D

 33 36  0  0  0  0            999 V2000
   10.1688   -9.5924    0.0000 C   0  0
    9.4543   -9.1800    0.0000 C   0  0
    8.7399   -9.5924    0.0000 C   0  0
    8.0254   -9.1800    0.0000 C   0  0
   10.8833   -9.1800    0.0000 O   0  0
   13.0267  -12.0675    0.0000 N   0  0
   13.7411  -11.6549    0.0000 C   0  0
   13.7411  -10.8299    0.0000 N   0  0
   13.0267  -10.4174    0.0000 C   0  0
   12.3122  -10.8299    0.0000 C   0  0
   11.5977  -10.4174    0.0000 C   0  0
   10.8833  -10.8299    0.0000 C   0  0
   10.8833  -11.6549    0.0000 C   0  0
   11.5977  -12.0675    0.0000 C   0  0
   12.3122  -11.6549    0.0000 C   0  0
   10.1688  -12.0675    0.0000 O   0  0
   10.1688  -10.4174    0.0000 N   0  0
    9.4543  -10.8299    0.0000 C   0  0
    9.4543  -11.6549    0.0000 C   0  0
   13.0267   -9.5924    0.0000 N   0  0
   13.7411   -9.1800    0.0000 C   0  0
   13.7411   -8.3549    0.0000 C   0  0
   14.4556   -7.9424    0.0000 C   0  0
   15.1701   -8.3549    0.0000 C   0  0
   15.1701   -9.1800    0.0000 C   0  0
   14.4556   -9.5924    0.0000 C   0  0
   14.4556   -7.1175    0.0000 C   0  0
    7.3109   -9.5924    0.0000 N   0  0
    7.3109  -10.4174    0.0000 C   0  0
    6.5965   -9.1800    0.0000 C   0  0
   15.1669   -6.7068    0.0000 F   0  0
   13.7444   -6.7068    0.0000 F   0  0
   14.4515   -6.2924    0.0000 F   0  0
  1  2  1  0
  2  3  2  0
  3  4  1  0
  1  5  2  0
  6  7  1  0
  7  8  2  0
  8  9  1  0
  9 10  2  0
 10 11  1  0
 11 12  2  0
 12 13  1  0
 13 14  2  0
 14 15  1  0
  6 15  2  0
 10 15  1  0
 17 18  1  0
 18 19  1  0
 16 19  1  0
 12 17  1  0
 13 16  1  0
 21 22  1  0
 22 23  2  0
 23 24  1  0
 24 25  2  0
 25 26  1  0
 21 26  2  0
 23 27  1  0
 20 21  1  0
  9 20  1  0
  1 17  1  0
 28 29  1  0
 28 30  1  0
  4 28  1  0
 27 31  1  0
 27 32  1  0
 27 33  1  0
M  END
> <chembl_id>
CHEMBL2441566

$$$$

  SciTegic04301217312D

 20 21  0  0  0  0            999 V2000
   10.0777   -3.8500    0.0000 C   0  0
   10.0766   -4.6773    0.0000 C   0  0
   10.7914   -5.0902    0.0000 C   0  0
   11.5078   -4.6769    0.0000 C   0  0
   11.5050   -3.8463    0.0000 C   0  0
   10.7896   -3.4372    0.0000 C   0  0
   12.2179   -3.4311    0.0000 C   0  0
   12.9339   -3.8409    0.0000 N   0  0
   12.2148   -2.6061    0.0000 O   0  0
   13.6468   -3.4258    0.0000 N   0  0
   14.3628   -3.8356    0.0000 C   0  0
   14.3628   -4.6594    0.0000 C   0  0
   15.0780   -5.0691    0.0000 C   0  0
   15.7919   -4.6539    0.0000 C   0  0
   15.7861   -3.8246    0.0000 C   0  0
   15.0704   -3.4187    0.0000 C   0  0
   13.6490   -5.0731    0.0000 C   0  0
   16.5085   -5.0628    0.0000 Cl  0  0
    9.3618   -5.0893    0.0000 C   0  0
    8.6476   -4.6762    0.0000 C   0  0
  8 10  1  0
  2  3  1  0
 10 11  1  0
  5  6  2  0
 11 12  2  0
  6  1  1  0
 12 13  1  0
  1  2  2  0
 13 14  2  0
  5  7  1  0
 14 15  1  0
  3  4  2  0
 15 16  2  0
 16 11  1  0
  7  8  1  0
 12 17  1  0
 14 18  1  0
  7  9  2  0
  2 19  1  0
  4  5  1  0
 19 20  1  0
M  END
> <chembl_id>
CHEMBL1944927

$$$$

  SciTegic01161211252D

 32 36  0  0  0  0            999 V2000
    3.2529   -4.6572    0.0000 C   0  0
    3.2518   -5.4971    0.0000 C   0  0
    3.9774   -5.9161    0.0000 C   0  0
    4.7046   -5.4966    0.0000 C   0  0
    4.7017   -4.6535    0.0000 C   0  0
    3.9755   -4.2382    0.0000 C   0  0
   -1.9323   -6.2892    0.0000 C   0  0
   -1.9344   -7.1095    0.0000 N   0  0
   -1.2241   -7.5203    0.0000 C   0  0
   -0.5102   -7.1068    0.0000 C   0  0
   -0.5100   -6.2840    0.0000 C   0  0
   -1.2269   -5.8746    0.0000 C   0  0
    0.2037   -7.5171    0.0000 C   0  0
    0.2035   -8.3447    0.0000 C   0  0
    0.9130   -8.7531    0.0000 N   0  0
    0.9069   -7.1071    0.0000 C   0  0
    1.6214   -7.5097    0.0000 C   0  0
    1.6231   -8.3362    0.0000 C   0  0
    2.3334   -8.7466    0.0000 N   0  0
    3.0447   -8.3334    0.0000 C   0  0
    3.0431   -7.5110    0.0000 C   0  0
    2.3251   -7.1022    0.0000 N   0  0
    2.3251   -6.0320    0.0000 C   0  0
   -2.6431   -5.8821    0.0000 N   0  0
   -2.6464   -5.0596    0.0000 C   0  0
   -3.3532   -4.6484    0.0000 C   0  0
   -4.0651   -5.0583    0.0000 N   0  0
   -4.0659   -5.8795    0.0000 C   0  0
   -3.3547   -6.2909    0.0000 C   0  0
   -4.7746   -4.6442    0.0000 C   0  0
    5.4306   -5.9142    0.0000 Cl  0  0
    2.5276   -4.2387    0.0000 Cl  0  0
  9 10  1  0
 10 11  2  0
 11 12  1  0
 12  7  2  0
 10 13  1  0
 13 14  1  0
 14 15  2  0
 15 18  1  0
 17 16  1  0
 16 13  2  0
 17 18  2  0
 17 22  1  0
 18 19  1  0
 19 20  1  0
 20 21  1  0
 21 22  1  0
 22 23  1  0
  4  5  1  0
  7 24  1  0
 24 25  1  0
  2  3  1  0
  5  6  2  0
  6  1  1  0
  1  2  2  0
  3  4  2  0
 24 29  1  0
 25 26  1  0
 26 27  1  0
 27 28  1  0
 28 29  1  0
 27 30  1  0
 23  2  1  0
  7  8  1  0
  4 31  1  0
  8  9  2  0
  1 32  1  0
M  END
> <chembl_id>
CHEMBL1164181

$$$$

  SciTegic01181116592D

 33 37  0  0  0  0            999 V2000
   19.0499   -2.4215    0.0000 N   0  0
   19.7669   -2.0078    0.0000 C   0  0
   19.7640   -1.1765    0.0000 N   0  0
   19.0481   -0.7671    0.0000 C   0  0
   19.0456    0.0587    0.0000 N   0  0
   18.3343   -2.0083    0.0000 C   0  0
   18.3310   -1.1832    0.0000 C   0  0
   17.5507   -2.2663    0.0000 S   0  0
   17.0630   -1.6009    0.0000 C   0  0
   17.5451   -0.9331    0.0000 C   0  0
   17.2097   -0.1860    0.0000 C   0  0
   16.3912   -0.1002    0.0000 C   0  0
   15.9092   -0.7675    0.0000 N   0  0
   16.2456   -1.5214    0.0000 C   0  0
   19.7594    0.4737    0.0000 C   0  0  1  0  0  0
   20.4757    0.0630    0.0000 C   0  0
   19.7570    1.2994    0.0000 C   0  0
   20.4760   -0.7601    0.0000 C   0  0
   21.1915   -1.1707    0.0000 C   0  0
   21.9064   -0.7557    0.0000 C   0  0
   21.9013    0.0743    0.0000 C   0  0
   21.1851    0.4812    0.0000 C   0  0
   15.0800   -0.7674    0.0000 C   0  0
   14.6670   -1.4824    0.0000 O   0  0
   14.6671   -0.0521    0.0000 C   0  0
   15.0801    0.6629    0.0000 C   0  0
   20.4708    1.7144    0.0000 O   0  0
   14.6673    1.3780    0.0000 C   0  0
   15.0823    2.0904    0.0000 C   0  0
   14.6701    2.8051    0.0000 C   0  0
   13.8435    2.8057    0.0000 C   0  0
   13.4307    2.0855    0.0000 C   0  0
   13.8452    1.3738    0.0000 C   0  0
 15 16  1  0
  7 10  1  0
 15 17  1  6
  9  8  1  0
 16 18  2  0
  8  6  1  0
 18 19  1  0
  9 10  2  0
 19 20  2  0
  3  4  2  0
 20 21  1  0
  4  7  1  0
 21 22  2  0
 22 16  1  0
  1  2  2  0
 13 23  1  0
  4  5  1  0
 23 24  2  0
  6  7  2  0
 23 25  1  0
  6  1  1  0
 25 26  2  0
  9 14  1  0
 17 27  1  0
 10 11  1  0
 26 28  1  0
 11 12  1  0
 28 29  2  0
 12 13  1  0
 29 30  1  0
 13 14  1  0
 30 31  2  0
  2  3  1  0
 31 32  1  0
  5 15  1  0
 32 33  2  0
 33 28  1  0
M  END
> <chembl_id>
CHEMBL1272275

$$$$

  SciTegic01161211252D

 27 29  0  0  0  0            999 V2000
   -1.8181  -13.0500    0.0000 C   0  0
   -1.8193  -13.8773    0.0000 C   0  0
   -1.1044  -14.2902    0.0000 C   0  0
   -1.1062  -12.6372    0.0000 C   0  0
   -0.3909  -13.0463    0.0000 C   0  0
   -0.3901  -13.8732    0.0000 C   0  0
    0.3252  -14.2841    0.0000 N   0  0
    1.0402  -13.8694    0.0000 C   0  0
    1.0355  -13.0394    0.0000 C   0  0
    0.3196  -12.6322    0.0000 C   0  0
    0.3152  -11.8072    0.0000 N   0  0
    1.0275  -11.3909    0.0000 C   0  0
    1.7431  -11.8051    0.0000 C   0  0
    2.4549  -11.3895    0.0000 C   0  0
    2.4510  -10.5636    0.0000 C   0  0
    1.7293  -10.1551    0.0000 C   0  0
    1.0205  -10.5731    0.0000 C   0  0
    3.1714  -11.7985    0.0000 Br  0  0
   -2.5327  -12.6376    0.0000 N   0  0
   -3.2470  -13.0503    0.0000 C   0  0
   -3.9616  -12.6380    0.0000 C   0  0
   -3.2468  -13.8753    0.0000 O   0  0
   -4.6760  -13.0506    0.0000 C   0  0
   -5.3906  -12.6383    0.0000 C   0  0
   -6.1117  -13.0510    0.0000 N   0  0
   -6.8222  -12.6387    0.0000 C   0  0
   -6.1119  -13.8760    0.0000 C   0  0
 12 13  2  0
  3  6  2  0
 13 14  1  0
  6  7  1  0
 14 15  2  0
  1  2  2  0
 15 16  1  0
  7  8  2  0
 16 17  2  0
 17 12  1  0
  5  4  2  0
 14 18  1  0
  8  9  1  0
  1 19  1  0
  4  1  1  0
 19 20  1  0
  9 10  2  0
 20 21  1  0
 10  5  1  0
 20 22  2  0
 21 23  1  0
 10 11  1  0
 23 24  1  0
  2  3  1  0
 24 25  1  0
 11 12  1  0
 25 26  1  0
  5  6  1  0
 25 27  1  0
M  END
> <chembl_id>
CHEMBL1089524

$$$$

  Mrv0541 05211314572D          

 30 33  0  0  0  0            999 V2000
    4.9491   -5.6182    0.0000 C   0  0  0  0  0  0  0  0  0  0  0  0
    5.6636   -5.2057    0.0000 C   0  0  0  0  0  0  0  0  0  0  0  0
    5.6636   -4.3807    0.0000 C   0  0  0  0  0  0  0  0  0  0  0  0
    6.3781   -3.9682    0.0000 C   0  0  0  0  0  0  0  0  0  0  0  0
    7.0926   -4.3807    0.0000 C   0  0  0  0  0  0  0  0  0  0  0  0
    7.0926   -5.2057    0.0000 C   0  0  0  0  0  0  0  0  0  0  0  0
    6.3781   -5.6182    0.0000 C   0  0  0  0  0  0  0  0  0  0  0  0
    7.8070   -3.9682    0.0000 N   0  0  0  0  0  0  0  0  0  0  0  0
    8.5215   -4.3807    0.0000 C   0  0  0  0  0  0  0  0  0  0  0  0
    9.2360   -3.9682    0.0000 C   0  0  0  0  0  0  0  0  0  0  0  0
    8.5215   -5.2057    0.0000 O   0  0  0  0  0  0  0  0  0  0  0  0
    9.2360   -3.1432    0.0000 C   0  0  0  0  0  0  0  0  0  0  0  0
    9.9504   -2.7307    0.0000 O   0  0  0  0  0  0  0  0  0  0  0  0
    9.9504   -4.3807    0.0000 O   0  0  0  0  0  0  0  0  0  0  0  0
   10.6649   -3.9682    0.0000 C   0  0  0  0  0  0  0  0  0  0  0  0
   10.6649   -3.1432    0.0000 C   0  0  0  0  0  0  0  0  0  0  0  0
   11.3794   -2.7307    0.0000 C   0  0  0  0  0  0  0  0  0  0  0  0
   12.0939   -3.1432    0.0000 C   0  0  0  0  0  0  0  0  0  0  0  0
   12.0939   -3.9682    0.0000 C   0  0  0  0  0  0  0  0  0  0  0  0
   11.3794   -4.3807    0.0000 C   0  0  0  0  0  0  0  0  0  0  0  0
    4.8629   -6.4386    0.0000 C   0  0  0  0  0  0  0  0  0  0  0  0
    4.0559   -6.6102    0.0000 N   0  0  0  0  0  0  0  0  0  0  0  0
    3.6434   -5.8957    0.0000 N   0  0  0  0  0  0  0  0  0  0  0  0
    4.1955   -5.2826    0.0000 C   0  0  0  0  0  0  0  0  0  0  0  0
    6.3781   -3.1432    0.0000 O   0  0  0  0  0  0  0  0  0  0  0  0
    5.6636   -2.7307    0.0000 C   0  0  0  0  0  0  0  0  0  0  0  0
    5.6636   -1.9057    0.0000 C   0  0  0  0  0  0  0  0  0  0  0  0
    4.9491   -1.4932    0.0000 N   0  0  0  0  0  0  0  0  0  0  0  0
    4.2347   -1.9057    0.0000 C   0  0  0  0  0  0  0  0  0  0  0  0
    4.9491   -0.6682    0.0000 C   0  0  0  0  0  0  0  0  0  0  0  0
 15 14  1  0  0  0  0
  7  2  1  0  0  0  0
  3  4  1  0  0  0  0
 15 16  2  0  0  0  0
  5  8  1  0  0  0  0
 16 17  1  0  0  0  0
 17 18  2  0  0  0  0
  8  9  1  0  0  0  0
 18 19  1  0  0  0  0
  4  5  2  0  0  0  0
 19 20  2  0  0  0  0
 20 15  1  0  0  0  0
  1 21  2  0  0  0  0
  9 10  1  0  0  0  0
  2  3  2  0  0  0  0
  9 11  2  0  0  0  0
 10 12  1  0  0  0  0
 21 22  1  0  0  0  0
 22 23  1  0  0  0  0
 23 24  2  0  0  0  0
 24  1  1  0  0  0  0
  5  6  1  0  0  0  0
  4 25  1  0  0  0  0
  1  2  1  0  0  0  0
 25 26  1  0  0  0  0
  6  7  2  0  0  0  0
 26 27  1  0  0  0  0
 10 14  1  0  0  0  0
 27 28  1  0  0  0  0
 12 13  1  0  0  0  0
 28 29  1  0  0  0  0
 13 16  1  0  0  0  0
 28 30  1  0  0  0  0
M  END
> <chembl_id>
CHEMBL521179

$$$$

  SciTegic09081514182D

 36 37  0  0  0  0            999 V2000
    1.2990   -0.7500    0.0000 C   0  0
    1.2990    0.7500    0.0000 C   0  0
    0.0000    1.5000    0.0000 C   0  0
   -1.2990    0.7500    0.0000 C   0  0
   -1.2990   -0.7500    0.0000 C   0  0
    0.0000   -1.5000    0.0000 C   0  0
   -2.5972   -1.5031    0.0000 C   0  0
   -2.5951   -3.0039    0.0000 C   0  0
   -3.8933   -3.7570    0.0000 C   0  0
   -3.8912   -5.2578    0.0000 C   0  0
   -4.9336   -3.1588    0.0000 O   0  0
   -5.1894   -6.0109    0.0000 C   0  0
   -5.1872   -7.5117    0.0000 C   0  0
   -6.2296   -5.4127    0.0000 O   0  0
   -6.4854   -8.2648    0.0000 C   0  0
   -6.4833   -9.7657    0.0000 C   0  0
   -7.7797  -10.5203    0.0000 C   0  0
   -7.7745  -12.0202    0.0000 C   0  0
   -6.4729  -12.7657    0.0000 C   0  0
   -5.1764  -12.0112    0.0000 C   0  0
   -5.1816  -10.5113    0.0000 C   0  0
    2.5973   -1.5031    0.0000 O   0  0
    2.5972    1.5031    0.0000 O   0  0
   -6.4708  -14.2666    0.0000 O   0  0
   -3.8726  -12.7545    0.0000 O   0  0
    2.5956   -2.7031    0.0000 C   0  0
    2.5955    2.7031    0.0000 C   0  0
   -2.8363  -12.1494    0.0000 C   0  0
   -7.5088  -14.8687    0.0000 C   0  0
   -2.5916   -6.0087    0.0000 C   0  0
   -2.5912   -7.5095    0.0000 C   0  0
   -1.2916   -8.2603    0.0000 C   0  0
   -0.2524   -7.6603    0.0000 O   0  0
   -1.2912   -9.7611    0.0000 O   0  0
    0.0084  -10.5119    0.0000 C   0  0
    0.0087  -11.7119    0.0000 C   0  0
  1  2  2  0
  2  3  1  0
  3  4  2  0
  4  5  1  0
  5  6  2  0
  6  1  1  0
  5  7  1  0
  7  8  2  0
  8  9  1  0
  9 10  2  0
  9 11  1  0
 10 12  1  0
 12 13  1  0
 12 14  2  0
 13 15  2  0
 15 16  1  0
 16 17  2  0
 17 18  1  0
 18 19  2  0
 19 20  1  0
 20 21  2  0
 21 16  1  0
  1 22  1  0
  2 23  1  0
 19 24  1  0
 20 25  1  0
 22 26  1  0
 23 27  1  0
 25 28  1  0
 24 29  1  0
 10 30  1  0
 30 31  1  0
 31 32  1  0
 32 33  2  0
 32 34  1  0
 34 35  1  0
 35 36  1  0
M  END
> <chembl_id>
CHEMBL3402864

$$$$

  SciTegic02271217242D

 26 29  0  0  0  0            999 V2000
    9.7622  -17.6527    0.0000 N   0  0
   10.4787  -17.2394    0.0000 C   0  0
   10.4758  -16.4088    0.0000 N   0  0
    9.7604  -15.9997    0.0000 C   0  0
    9.0474  -17.2398    0.0000 C   0  0
    9.0487  -16.4109    0.0000 C   0  0
    8.2607  -16.1536    0.0000 N   0  0
    7.7724  -16.8235    0.0000 C   0  0
    8.2587  -17.4947    0.0000 C   0  0
    9.7586  -15.1747    0.0000 N   0  0
   10.4722  -14.7606    0.0000 C   0  0
   11.1844  -15.1745    0.0000 C   0  0
   11.8975  -14.7611    0.0000 C   0  0
   11.8962  -13.9353    0.0000 C   0  0
   11.1758  -13.5245    0.0000 C   0  0
   10.4656  -13.9402    0.0000 C   0  0
   12.6127  -15.1724    0.0000 Cl  0  0
   12.6092  -13.5202    0.0000 O   0  0
   13.3251  -13.9302    0.0000 C   0  0
   13.3251  -14.7553    0.0000 C   0  0
   14.0402  -15.1652    0.0000 C   0  0
   14.7542  -14.7501    0.0000 C   0  0
   14.7486  -13.9208    0.0000 C   0  0
   14.0330  -13.5147    0.0000 C   0  0
   14.0246  -12.6918    0.0000 C   0  0
   14.0185  -11.8669    0.0000 N   0  0
  5  1  1  0
 12 13  1  0
  2  3  1  0
 13 14  2  0
 14 15  1  0
  3  4  2  0
 15 16  2  0
 16 11  1  0
  6  7  1  0
 13 17  1  0
  7  8  1  0
 14 18  1  0
  8  9  2  0
 18 19  1  0
  9  5  1  0
 19 20  2  0
  4  6  1  0
 20 21  1  0
  4 10  1  0
 21 22  2  0
  5  6  2  0
 22 23  1  0
 10 11  1  0
 23 24  2  0
 24 19  1  0
  1  2  2  0
 11 12  2  0
 25 26  3  0
 24 25  1  0
M  END
> <chembl_id>
CHEMBL1922901

$$$$

          11280715312D 1   1.00000     0.00000     0

 29 30  0     0  0            999 V2000
   -2.0375   -1.2125    0.0000 C   0  0  0  0  0  0           0  0  0
    6.5292   -1.1750    0.0000 C   0  0  0  0  0  0           0  0  0
    6.5375   -2.0042    0.0000 C   0  0  0  0  0  0           0  0  0
   -2.0375   -2.0417    0.0000 C   0  0  0  0  0  0           0  0  0
   -1.3250   -0.8000    0.0000 C   0  0  0  0  0  0           0  0  0
    5.8125   -0.7667    0.0000 C   0  0  0  0  0  0           0  0  0
    1.5292   -0.7917    0.0000 C   0  0  0  0  0  0           0  0  0
    2.2500   -1.2000    0.0000 C   0  0  0  0  0  0           0  0  0
    1.5292    0.0333    0.0000 O   0  0  0  0  0  0           0  0  0
   -1.3250   -2.4542    0.0000 C   0  0  0  0  0  0           0  0  0
    5.8167   -2.4167    0.0000 C   0  0  0  0  0  0           0  0  0
    5.1042   -1.1875    0.0000 C   0  0  0  0  0  0           0  0  0
   -0.6083   -1.2125    0.0000 C   0  0  0  0  0  0           0  0  0
    5.1042   -2.0125    0.0000 C   0  0  0  0  0  0           0  0  0
   -0.6083   -2.0417    0.0000 C   0  0  0  0  0  0           0  0  0
    0.8167   -1.2042    0.0000 C   0  0  0  0  0  0           0  0  0
    7.2417   -0.7542    0.0000 O   0  0  0  0  0  0           0  0  0
   -2.7500   -0.8042    0.0000 O   0  0  0  0  0  0           0  0  0
    0.1042   -0.7917    0.0000 C   0  0  0  0  0  0           0  0  0
    4.3917   -0.7792    0.0000 C   0  0  0  0  0  0           0  0  0
    7.2542   -2.4167    0.0000 O   0  0  0  0  0  0           0  0  0
   -2.7583   -2.4542    0.0000 O   0  0  0  0  0  0           0  0  0
    2.9625   -0.7792    0.0000 C   0  0  3  0  0  0           0  0  0
    3.6792   -1.1917    0.0000 C   0  0  0  0  0  0           0  0  0
    2.9542    0.0458    0.0000 O   0  0  0  0  0  0           0  0  0
   -2.7500    0.0208    0.0000 C   0  0  0  0  0  0           0  0  0
    7.2292    0.0708    0.0000 C   0  0  0  0  0  0           0  0  0
   -3.4708   -2.0417    0.0000 C   0  0  0  0  0  0           0  0  0
    7.2542   -3.2417    0.0000 C   0  0  0  0  0  0           0  0  0
  2  6  2  0     0  0
  3 11  2  0     0  0
  4  1  2  0     0  0
  5  1  1  0     0  0
  6 12  1  0     0  0
  7 16  1  0     0  0
  8  7  1  0     0  0
  9  7  2  0     0  0
 10  4  1  0     0  0
 11 14  1  0     0  0
 12 20  1  0     0  0
 13  5  2  0     0  0
 14 12  2  0     0  0
 15 13  1  0     0  0
 16 19  1  0     0  0
 17  2  1  0     0  0
 18  1  1  0     0  0
 19 13  1  0     0  0
 20 24  1  0     0  0
 21  3  1  0     0  0
 22  4  1  0     0  0
 23  8  1  0     0  0
 24 23  1  0     0  0
 25 23  1  0     0  0
 26 18  1  0     0  0
 27 17  1  0     0  0
 28 22  1  0     0  0
 29 21  1  0     0  0
 15 10  2  0     0  0
  3  2  1  0     0  0
M  END
> <chembl_id>
CHEMBL357618

$$$$

  SciTegic12171313052D

 30 33  0  0  0  0            999 V2000
    0.8570   -9.8640    0.0000 C   0  0
    0.8559  -10.6836    0.0000 C   0  0
    1.5639  -11.0925    0.0000 C   0  0
    2.2736  -10.6831    0.0000 C   0  0
    2.2708   -9.8604    0.0000 C   0  0
    1.5622   -9.4552    0.0000 C   0  0
    1.5597   -8.6380    0.0000 N   0  0
    2.2662   -8.2273    0.0000 C   0  0
    2.9766   -8.6382    0.0000 N   0  0
    2.9667   -7.0038    0.0000 C   0  0
    2.2636   -7.4162    0.0000 N   0  0
    3.6806   -7.4101    0.0000 C   0  0
    3.6814   -8.2298    0.0000 C   0  0
    4.3878   -8.6368    0.0000 N   0  0
    5.0979   -8.2285    0.0000 C   0  0
    5.0971   -7.4087    0.0000 C   0  0
    4.3862   -6.9973    0.0000 N   0  0
    4.3889   -9.4513    0.0000 C   0  0
    3.6794   -9.8590    0.0000 C   0  0
    3.6787  -10.6754    0.0000 C   0  0
    4.3868  -11.0851    0.0000 C   0  0
    5.0970  -10.6724    0.0000 C   0  0
    5.0942   -9.8573    0.0000 C   0  0
    5.8054   -8.6374    0.0000 O   0  0
    5.8060  -11.0788    0.0000 N   0  0
    5.8085  -11.8960    0.0000 C   0  0
    6.5175  -12.3024    0.0000 O   0  0
    5.1021  -12.3068    0.0000 C   0  0
    4.3931  -11.9004    0.0000 C   0  0
    1.5637  -11.9097    0.0000 Cl  0  0
  1  2  2  0
  2  3  1  0
  3  4  2  0
  4  5  1  0
  5  6  2  0
  6  1  1  0
  6  7  1  0
  7  8  1  0
  8  9  2  0
  9 13  1  0
 12 10  1  0
 10 11  2  0
 11  8  1  0
 12 13  2  0
 12 17  1  0
 13 14  1  0
 14 15  1  0
 15 16  1  0
 16 17  2  0
 18 19  2  0
 19 20  1  0
 20 21  2  0
 21 22  1  0
 22 23  2  0
 23 18  1  0
 14 18  1  0
 15 24  2  0
 22 25  1  0
 25 26  1  0
 26 27  2  0
 26 28  1  0
 28 29  2  0
  3 30  1  0
M  END
> <chembl_id>
CHEMBL2437458

$$$$

  SciTegic12131016252D

 23 26  0  0  0  0            999 V2000
    3.5157  -15.5730    0.0000 N   0  0
    3.5146  -16.4005    0.0000 C   0  0
    4.2295  -16.8134    0.0000 N   0  0
    4.2277  -15.1602    0.0000 C   0  0
    4.9432  -15.5694    0.0000 C   0  0
    4.9434  -16.4005    0.0000 C   0  0
    5.7340  -16.6572    0.0000 N   0  0
    6.2224  -15.9846    0.0000 N   0  0
    5.7336  -15.3124    0.0000 C   0  0
    6.1467  -17.3709    0.0000 C   0  0
    5.7341  -18.0855    0.0000 C   0  0
    6.9718  -17.3708    0.0000 C   0  0
    4.2252  -14.3351    0.0000 N   0  0
    5.9839  -14.5285    0.0000 C   0  0
    6.7685  -14.2732    0.0000 N   0  0
    5.4987  -13.8611    0.0000 C   0  0
    5.9833  -13.1934    0.0000 C   0  0
    6.7652  -13.4504    0.0000 C   0  0
    7.3766  -12.9023    0.0000 C   0  0
    7.2074  -12.0971    0.0000 C   0  0
    6.4213  -11.8430    0.0000 C   0  0
    5.8132  -12.3928    0.0000 C   0  0
    6.2484  -11.0362    0.0000 O   0  0
 10 11  1  0
 10 12  1  0
  2  3  1  0
  4 13  1  0
 14 15  1  0
  3  6  2  0
  1  2  2  0
  5  4  2  0
 15 18  1  0
 17 16  1  0
 16 14  2  0
  9 14  1  0
  6  7  1  0
  7  8  1  0
 17 18  2  0
  8  9  2  0
 18 19  1  0
  9  5  1  0
 19 20  2  0
  4  1  1  0
 20 21  1  0
  7 10  1  0
 21 22  2  0
 22 17  1  0
  5  6  1  0
 21 23  1  0
M  END
> <chembl_id>
CHEMBL1241674

$$$$

  SciTegic01161211212D

 36 40  0  0  0  0            999 V2000
   24.0556   -2.6658    0.0000 C   0  0
   24.0575   -3.4974    0.0000 C   0  0
   24.7660   -3.8996    0.0000 N   0  0
   24.7622   -2.2496    0.0000 C   0  0
   25.4784   -2.6552    0.0000 C   0  0
   25.4824   -3.4882    0.0000 C   0  0
   26.9055   -3.4814    0.0000 C   0  0
   26.1815   -2.2486    0.0000 N   0  0
   26.1815   -1.4239    0.0000 C   0  0
   26.9127   -2.6720    0.0000 C   0  0
   28.3371   -1.0047    0.0000 C   0  0
   26.8965   -1.0118    0.0000 C   0  0
   27.6178   -1.4239    0.0000 C   0  0
   28.3385   -0.1701    0.0000 C   0  0
   27.6073    0.2400    0.0000 C   0  0
   26.8887   -0.1856    0.0000 C   0  0
   26.1704    0.2194    0.0000 C   0  0
   26.1619    1.0440    0.0000 F   0  0
   25.4605   -0.2002    0.0000 F   0  0
   25.4499    0.6328    0.0000 F   0  0
   29.0518   -1.4162    0.0000 Cl  0  0
   23.3391   -2.2574    0.0000 C   0  0
   23.3384   -1.4353    0.0000 C   0  0
   22.6228   -1.0269    0.0000 C   0  0
   21.9099   -1.4433    0.0000 C   0  0
   21.9171   -2.2722    0.0000 C   0  0
   22.6332   -2.6768    0.0000 C   0  0
   21.1928   -1.0358    0.0000 C   0  0
   21.1872   -0.2111    0.0000 O   0  0
   20.4815   -1.4530    0.0000 N   0  0
   19.7639   -1.0422    0.0000 C   0  0
   19.0547   -1.4559    0.0000 C   0  0
   19.0561   -2.2809    0.0000 C   0  0
   19.7729   -2.6906    0.0000 C   0  0
   20.4884   -2.2752    0.0000 C   0  0
   26.1959   -3.9023    0.0000 N   0  0
 16 17  1  0
  1  2  1  0
 17 18  1  0
  2  3  2  0
 17 19  1  0
  3  6  1  0
 17 20  1  0
  5  4  1  0
 11 21  1  0
  4  1  2  0
  1 22  1  0
  5  6  2  0
 22 23  2  0
  5  8  1  0
 23 24  1  0
 24 25  2  0
 25 26  1  0
  7 10  1  0
 26 27  2  0
 27 22  1  0
 10  8  1  0
 25 28  1  0
  8  9  1  0
 28 29  2  0
 12 13  2  0
 28 30  1  0
 30 31  1  0
 13 11  1  0
 11 14  2  0
 14 15  1  0
 15 16  2  0
 16 12  1  0
 30 35  1  0
 31 32  1  0
 32 33  1  0
 33 34  1  0
 34 35  1  0
  9 12  1  0
  6 36  1  0
 36  7  1  0
M  END
> <chembl_id>
CHEMBL1163518

$$$$

  SciTegic12091611202D

 33 36  0  0  0  0            999 V2000
   -1.0028   -1.5132    0.0000 C   0  0
   -1.0028    1.5132    0.0000 C   0  0
   -2.3155    0.7475    0.0000 C   0  0
   -2.3155   -0.7475    0.0000 N   0  0
    0.2917    0.7475    0.0000 C   0  0
    0.2917   -0.7475    0.0000 C   0  0
    1.7138   -1.2033    0.0000 N   0  0
    2.5889    0.0182    0.0000 C   0  0
    1.7138    1.2033    0.0000 N   0  0
   -3.6217    1.4865    0.0000 N   0  0
   -4.9153    0.7255    0.0000 C   0  0
   -6.2219    1.4621    0.0000 N   0  0
   -7.5133    0.6990    0.0000 C   0  0
   -7.4980   -0.8010    0.0000 N   0  0
   -6.1914   -1.5377    0.0000 C   0  0
   -4.9001   -0.7745    0.0000 C   0  0
    2.1802    2.6275    0.0000 C   0  0  2  0  0  0
    3.3546    2.8738    0.0000 C   0  0
    1.1793    3.7458    0.0000 C   0  0
    1.5528    4.8862    0.0000 F   0  0
    0.3786    4.6396    0.0000 F   0  0
    0.0048    3.4995    0.0000 F   0  0
   -8.8205    1.4361    0.0000 N   0  0
   -8.8383    2.9360    0.0000 C   0  0
  -10.1461    3.6707    0.0000 C   0  0
  -11.4362    2.9055    0.0000 C   0  0  1  0  0  0
  -11.4185    1.4056    0.0000 C   0  0  1  0  0  0
  -10.1108    0.6709    0.0000 C   0  0
  -12.4506    0.7934    0.0000 F   0  0
  -12.4824    3.4932    0.0000 O   0  0
    4.0872    0.0331    0.0000 C   0  0  1  0  0  0
    4.6973   -1.0002    0.0000 C   0  0
    4.6774    1.0780    0.0000 O   0  0
  1  6  2  0
  5  2  2  0
  2  3  1  0
  3  4  2  0
  4  1  1  0
  5  6  1  0
  6  7  1  0
  7  8  2  0
  8  9  1  0
  9  5  1  0
  3 10  1  0
 10 11  1  0
 11 12  2  0
 12 13  1  0
 13 14  2  0
 14 15  1  0
 15 16  2  0
 16 11  1  0
  9 17  1  0
 17 18  1  0
 17 19  1  1
 19 20  1  0
 19 21  1  0
 19 22  1  0
 23 24  1  0
 23 28  1  0
 24 25  1  0
 25 26  1  0
 26 27  1  0
 27 28  1  0
 13 23  1  0
 27 29  1  1
 26 30  1  1
  8 31  1  0
 31 32  1  0
 31 33  1  6
M  END
> <chembl_id>
CHEMBL3734988

$$$$

  SciTegic09081514162D

 46 50  0  0  0  0            999 V2000
    1.2990   -0.7500    0.0000 N   0  0
    1.2990    0.7500    0.0000 C   0  0
    0.0000    1.5000    0.0000 N   0  0
   -1.2990    0.7500    0.0000 C   0  0
   -1.2990   -0.7500    0.0000 C   0  0
    0.0000   -1.5000    0.0000 C   0  0
   -2.5973    1.5031    0.0000 O   0  0
    2.5972    1.5031    0.0000 N   0  0
    2.5951    3.0039    0.0000 C   0  0
   -3.8990    0.7562    0.0000 C   0  0
   -5.1976    1.5069    0.0000 C   0  0
   -6.4972    0.7578    0.0000 C   0  0
   -6.4981   -0.7422    0.0000 C   0  0
   -5.1996   -1.4931    0.0000 C   0  0
   -3.9001   -0.7439    0.0000 C   0  0
    3.8915    3.7585    0.0000 C   0  0
    3.8863    5.2585    0.0000 C   0  0
    2.5847    6.0040    0.0000 C   0  0
    1.2883    5.2495    0.0000 C   0  0
    1.2934    3.7495    0.0000 C   0  0
    2.5795    7.5047    0.0000 N   0  0
    3.8747    8.2614    0.0000 C   0  0
    3.8671    9.7614    0.0000 C   0  0
    2.5643   10.5048    0.0000 N   0  0
    1.2691    9.7483    0.0000 C   0  0
    1.2767    8.2483    0.0000 C   0  0
   -2.3383   -1.3500    0.0000 Cl  0  0
   -5.1975   -2.9939    0.0000 N   0  0
   -3.8972   -3.7433    0.0000 C   0  0
   -3.8950   -5.2441    0.0000 C   0  0
   -2.8586   -3.1422    0.0000 O   0  0
   -2.5947   -5.9935    0.0000 C   0  0
    2.5583   11.7048    0.0000 C   0  0
    5.1954    3.0153    0.0000 O   0  0
    6.2317    3.6204    0.0000 C   0  0
   -5.1940   -5.9960    0.0000 C   0  0
   -6.2326   -6.5971    0.0000 N   0  0
   -2.5926   -7.4944    0.0000 C   0  0
   -1.2941   -8.2453    0.0000 C   0  0
   -1.2950   -9.7453    0.0000 C   0  0
   -2.5945  -10.4944    0.0000 C   0  0
   -3.8931   -9.7436    0.0000 C   0  0
   -3.8921   -8.2436    0.0000 C   0  0
   -2.5985  -11.9953    0.0000 N   0  3
   -3.6390  -12.5931    0.0000 O   0  0
   -1.5607  -12.5977    0.0000 O   0  5
  1  2  2  0
  2  3  1  0
  3  4  2  0
  4  5  1  0
  5  6  2  0
  6  1  1  0
  4  7  1  0
  2  8  1  0
  8  9  1  0
  7 10  1  0
 10 11  2  0
 11 12  1  0
 12 13  2  0
 13 14  1  0
 14 15  2  0
 15 10  1  0
  9 16  2  0
 16 17  1  0
 17 18  2  0
 18 19  1  0
 19 20  2  0
 20  9  1  0
 21 22  1  0
 22 23  1  0
 23 24  1  0
 24 25  1  0
 25 26  1  0
 26 21  1  0
 18 21  1  0
  5 27  1  0
 14 28  1  0
 28 29  1  0
 29 30  1  0
 29 31  2  0
 30 32  2  0
 24 33  1  0
 16 34  1  0
 34 35  1  0
 30 36  1  0
 36 37  3  0
 32 38  1  0
 38 39  2  0
 39 40  1  0
 40 41  2  0
 41 42  1  0
 42 43  2  0
 43 38  1  0
 44 45  2  0
 44 46  1  0
 41 44  1  0
M  CHG  2  44   1  46  -1
M  END
> <chembl_id>
CHEMBL3425657

$$$$

  SciTegic06051313552D

 25 28  0  0  0  0            999 V2000
   10.4900  -16.3438    0.0000 C   0  0
   10.4889  -17.1633    0.0000 C   0  0
   11.1969  -17.5723    0.0000 C   0  0
   11.9066  -17.1629    0.0000 C   0  0
   11.9038  -16.3401    0.0000 C   0  0
   11.1951  -15.9349    0.0000 C   0  0
   12.5844  -15.8880    0.0000 C   0  0
   13.3517  -16.1692    0.0000 C   0  0
   13.8562  -15.5264    0.0000 C   0  0
   13.4003  -14.8484    0.0000 N   0  0
   12.6148  -15.0714    0.0000 N   0  0
   13.8059  -14.1390    0.0000 C   0  0
   14.6231  -14.1355    0.0000 N   0  0
   13.3942  -13.4330    0.0000 S   0  0
   14.6707  -15.5565    0.0000 C   0  0
   15.0524  -16.2803    0.0000 C   0  0
   15.9167  -14.8932    0.0000 C   0  0
   15.1021  -14.8664    0.0000 C   0  0
   16.3034  -15.6179    0.0000 C   0  0
   15.8678  -16.3084    0.0000 C   0  0
   16.2479  -17.0288    0.0000 C   0  0
   17.0635  -17.0599    0.0000 C   0  0
   17.4974  -16.3647    0.0000 C   0  0
   17.1148  -15.6471    0.0000 C   0  0
    9.7808  -17.5714    0.0000 Br  0  0
  1  2  2  0
  2  3  1  0
  3  4  2  0
  4  5  1  0
  5  6  2  0
  6  1  1  0
  7  8  1  0
  8  9  1  0
  9 10  1  0
 10 11  1  0
 11  7  2  0
  5  7  1  0
 10 12  1  0
 12 13  1  0
 12 14  2  0
 15 16  2  0
 16 20  1  0
 19 17  1  0
 17 18  2  0
 18 15  1  0
  9 15  1  0
 19 20  1  0
 20 21  2  0
 21 22  1  0
 22 23  2  0
 23 24  1  0
 24 19  2  0
  2 25  1  0
M  END
> <chembl_id>
CHEMBL2324871

$$$$

  SciTegic12201611502D

 27 30  0  0  0  0            999 V2000
   -2.1332   -2.2973    0.0000 N   0  0
   -3.4277   -1.5498    0.0000 C   0  0
   -3.4277    0.0000    0.0000 N   0  0
   -2.1332    0.6928    0.0000 C   0  0
   -0.8205    0.0000    0.0000 C   0  0
    0.4558    0.6928    0.0000 C   0  0
    1.7503    0.0000    0.0000 C   0  0
    1.7503   -1.5498    0.0000 C   0  0
    0.4558   -2.2973    0.0000 C   0  0
   -0.8205   -1.5498    0.0000 C   0  0
    0.4558    2.1879    0.0000 O   0  0
    3.0631    0.6928    0.0000 O   0  0
    3.0631    2.1879    0.0000 C   0  0
    1.7503    2.9537    0.0000 C   0  0
   -2.1454    2.1947    0.0000 N   0  0
    3.0410   -2.3153    0.0000 O   0  0
    3.0239   -3.8160    0.0000 C   0  0
    4.3146   -4.5820    0.0000 C   0  0
    4.2976   -6.0827    0.0000 O   0  0
    5.3296   -6.6951    0.0000 C   0  0
   -3.4508    2.9353    0.0000 C   0  0
   -3.4653    4.4352    0.0000 C   0  0
   -4.7714    5.1728    0.0000 C   0  0
   -6.0632    4.4104    0.0000 C   0  0
   -6.0489    2.9104    0.0000 C   0  0
   -4.7427    2.1729    0.0000 C   0  0
   -7.1082    5.0004    0.0000 F   0  0
  1  2  1  0
  2  3  2  0
  3  4  1  0
  4  5  2  0
  5  6  1  0
  6  7  2  0
  7  8  1  0
  8  9  2  0
  9 10  1  0
  1 10  2  0
  5 10  1  0
 12 13  1  0
 13 14  1  0
 11 14  1  0
  6 11  1  0
  7 12  1  0
  4 15  1  0
 17 18  1  0
 16 17  1  0
 19 20  1  0
 18 19  1  0
  8 16  1  0
 21 22  1  0
 22 23  2  0
 23 24  1  0
 24 25  2  0
 25 26  1  0
 21 26  2  0
 24 27  1  0
 15 21  1  0
M  END
> <chembl_id>
CHEMBL3806005

$$$$

  SciTegic12161611592D

 30 34  0  0  0  0            999 V2000
    4.1295   -4.3524    0.0000 C   0  0
    3.6552   -2.9294    0.0000 C   0  0
    4.6506   -1.8071    0.0000 C   0  0
    6.1201   -2.1080    0.0000 C   0  0
    6.5944   -3.5310    0.0000 C   0  0
    8.0646   -3.8320    0.0000 C   0  0
    9.1520   -2.8173    0.0000 C   0  0
   10.4554   -3.5596    0.0000 N   0  0
   10.1523   -5.0286    0.0000 N   0  0
    8.6615   -5.1943    0.0000 C   0  0
   11.5488   -3.0650    0.0000 C   0  0
    5.5991   -4.6533    0.0000 C   0  0
    2.1855   -2.6254    0.0000 C   0  0
    1.7138   -1.2033    0.0000 C   0  0
    0.2917   -0.7475    0.0000 C   0  0
    0.2917    0.7475    0.0000 C   0  0
   -1.0028    1.5132    0.0000 C   0  0
   -2.3155    0.7475    0.0000 C   0  0
   -2.3155   -0.7475    0.0000 C   0  0
   -1.0028   -1.5132    0.0000 C   0  0
   -3.6187   -1.4919    0.0000 C   0  0
   -4.6549   -0.8867    0.0000 O   0  0
   -3.6267   -2.9927    0.0000 N   0  0
   -4.9282   -3.7385    0.0000 C   0  0
   -4.9331   -5.2385    0.0000 C   0  0
   -3.6365   -5.9928    0.0000 O   0  0
   -2.3350   -5.2470    0.0000 C   0  0
   -2.3301   -3.7470    0.0000 C   0  0
    1.7138    1.2033    0.0000 N   0  0
    2.5889    0.0182    0.0000 N   0  0
  1  2  2  0
  2  3  1  0
  3  4  2  0
  4  5  1  0
  5  6  1  0
  6  7  2  0
  7  8  1  0
  8  9  1  0
  9 10  2  0
 10  6  1  0
  8 11  1  0
  5 12  2  0
 12  1  1  0
 13  2  1  0
 14 13  1  0
 15 14  1  0
 16 15  1  0
 16 17  2  0
 17 18  1  0
 18 19  2  0
 19 20  1  0
 20 15  2  0
 19 21  1  0
 21 22  2  0
 21 23  1  0
 23 24  1  0
 24 25  1  0
 25 26  1  0
 26 27  1  0
 27 28  1  0
 23 28  1  0
 29 16  1  0
 30 29  1  0
 14 30  2  0
M  END
> <chembl_id>
CHEMBL3774885

$$$$

  SciTegic04091414152D

 42 47  0  0  0  0            999 V2000
   36.4943  -18.3999    0.0000 N   0  0
   36.4930  -19.2272    0.0000 C   0  0
   37.2079  -19.6401    0.0000 N   0  0
   37.2061  -17.9871    0.0000 C   0  0
   37.9215  -18.3962    0.0000 C   0  0
   37.9223  -19.2231    0.0000 C   0  0
   38.6375  -19.6341    0.0000 N   0  0
   39.3526  -19.2193    0.0000 C   0  0
   39.3478  -18.3893    0.0000 N   0  0
   38.6319  -17.9821    0.0000 C   0  0
   35.7783  -19.6392    0.0000 N   0  0
   40.0687  -19.6290    0.0000 O   0  0
   40.0597  -17.9724    0.0000 C   0  0
   35.7777  -20.4642    0.0000 C   0  0
   35.0627  -20.8746    0.0000 C   0  0
   35.0617  -21.6988    0.0000 C   0  0
   35.7764  -22.1127    0.0000 C   0  0
   36.4936  -21.6963    0.0000 C   0  0
   36.4910  -20.8735    0.0000 C   0  0
   35.7769  -22.9376    0.0000 N   0  0
   35.0622  -23.3512    0.0000 C   0  0
   35.0607  -24.1726    0.0000 C   0  0
   35.7735  -24.5886    0.0000 N   0  0
   36.4896  -24.1769    0.0000 C   0  0
   36.4928  -23.3493    0.0000 C   0  0
   35.7708  -25.4135    0.0000 C   0  0
   34.3491  -20.4607    0.0000 O   0  0
   33.6338  -20.8719    0.0000 C   0  0
   38.6393  -20.4591    0.0000 C   0  0  1  0  0  0
   37.9751  -20.9448    0.0000 C   0  0
   38.2317  -21.7289    0.0000 C   0  0
   39.0567  -21.7272    0.0000 N   0  0
   39.3099  -20.9420    0.0000 C   0  0
   39.4640  -22.4447    0.0000 C   0  0
   39.0465  -23.1564    0.0000 C   0  0
   40.2890  -22.4505    0.0000 O   0  0
   39.4541  -23.8737    0.0000 C   0  0
   40.7740  -18.3834    0.0000 C   0  0
   41.4839  -17.9700    0.0000 C   0  0
   41.4832  -17.1447    0.0000 C   0  0
   40.7663  -16.7344    0.0000 C   0  0
   40.0502  -17.1493    0.0000 C   0  0
  1  2  2  0
  2  3  1  0
  3  6  2  0
  5  4  2  0
  4  1  1  0
  5  6  1  0
  6  7  1  0
  7  8  1  0
  8  9  1  0
  9 10  1  0
 10  5  1  0
  2 11  1  0
  8 12  2  0
  9 13  1  0
 11 14  1  0
 14 15  2  0
 15 16  1  0
 16 17  2  0
 17 18  1  0
 18 19  2  0
 19 14  1  0
 17 20  1  0
 20 21  1  0
 20 25  1  0
 21 22  1  0
 22 23  1  0
 23 24  1  0
 24 25  1  0
 23 26  1  0
 15 27  1  0
 27 28  1  0
 29  7  1  6
 29 30  1  0
 30 31  1  0
 31 32  1  0
 32 33  1  0
 33 29  1  0
 32 34  1  0
 34 35  1  0
 34 36  2  0
 35 37  2  0
 13 38  2  0
 13 42  1  0
 38 39  1  0
 39 40  2  0
 40 41  1  0
 41 42  2  0
M  END
> <chembl_id>
CHEMBL3087198

$$$$

  SciTegic01161211252D

 42 48  0  0  0  0            999 V2000
    5.4516   -3.1915    0.0000 N   0  0
    4.7373   -2.7772    0.0000 C   0  0
    4.7389   -1.9515    0.0000 C   0  0
    4.0213   -3.1886    0.0000 O   0  0
    5.4572   -1.5429    0.0000 C   0  0
    5.4591   -0.7181    0.0000 C   0  0
    4.7442   -0.3029    0.0000 C   0  0
    4.0259   -0.7188    0.0000 C   0  0
    4.0275   -1.5425    0.0000 C   0  0
    3.3133   -1.9566    0.0000 F   0  0
    6.1705   -1.9589    0.0000 F   0  0
    4.7056   -4.3704    0.0000 C   0  0
    4.6795   -5.1981    0.0000 C   0  0
    5.3823   -5.6327    0.0000 C   0  0
    6.1115   -5.2407    0.0000 C   0  0
    6.1336   -4.4098    0.0000 C   0  0
    5.4302   -3.9789    0.0000 C   0  0
    6.8151   -5.6714    0.0000 C   0  0
    6.8338   -6.4976    0.0000 C   0  0
    7.5940   -5.3983    0.0000 N   0  0
    8.0949   -6.0548    0.0000 C   0  0
    7.6276   -6.7332    0.0000 N   0  0
    8.1284   -7.3876    0.0000 C   0  0
    8.9054   -7.1133    0.0000 C   0  0
    8.8847   -6.2896    0.0000 S   0  0
    6.1277   -6.9229    0.0000 C   0  0
    5.4051   -6.5210    0.0000 C   0  0
    4.6978   -6.9457    0.0000 C   0  0
    6.1435   -7.7450    0.0000 N   0  0
    5.4393   -8.1721    0.0000 C   0  0
    4.7081   -7.7730    0.0000 N   0  0
    5.4583   -8.9973    0.0000 N   0  0
    4.7507   -9.4231    0.0000 C   0  0
    4.0330   -9.0205    0.0000 C   0  0
    3.3260   -9.4454    0.0000 C   0  0
    4.7718  -10.2444    0.0000 C   0  0
    4.0676  -10.6716    0.0000 C   0  0
    3.3447  -10.2709    0.0000 C   0  0
    2.6400  -10.6944    0.0000 C   0  0
    2.6522  -11.5204    0.0000 N   0  0
    3.3752  -11.9211    0.0000 C   0  0
    4.0861  -11.4959    0.0000 C   0  0
  7  8  1  0
  8  9  2  0
  9  3  1  0
  9 10  1  0
  5 11  1  0
  1  2  1  0
  2  3  1  0
  2  4  2  0
  3  5  2  0
  5  6  1  0
  6  7  2  0
 21 20  2  0
 20 18  1  0
 15 18  1  0
 21 22  1  0
 15 16  1  0
 13 14  1  0
 16 17  2  0
 17 12  1  0
 18 19  2  0
 22 23  1  0
 23 24  2  0
 24 25  1  0
 30 32  1  0
 25 21  1  0
 32 33  1  0
 12 13  2  0
 33 34  2  0
 14 15  2  0
 34 35  1  0
 35 38  2  0
 26 27  2  0
 37 36  2  0
 36 33  1  0
 27 28  1  0
 37 38  1  0
 28 31  2  0
 19 22  1  0
 30 29  2  0
 29 26  1  0
 19 26  1  0
 30 31  1  0
 37 42  1  0
 38 39  1  0
 39 40  1  0
 40 41  1  0
 41 42  1  0
 17  1  1  0
M  END
> <chembl_id>
CHEMBL1090359

$$$$

  SciTegic10311316262D

 58 63  0  0  0  0            999 V2000
    7.5048  -15.7109    0.0000 C   0  0
    7.5037  -16.5305    0.0000 C   0  0
    8.2117  -16.9394    0.0000 C   0  0
    8.9214  -16.5300    0.0000 C   0  0
    8.9185  -15.7073    0.0000 C   0  0
    8.2099  -15.3021    0.0000 C   0  0
    6.7977  -15.2981    0.0000 N   0  0
    6.7995  -14.4800    0.0000 C   0  0
    6.0958  -14.0716    0.0000 C   0  0
    5.3857  -14.4769    0.0000 N   0  0
    5.3840  -15.2951    0.0000 C   0  0
    6.0922  -15.7079    0.0000 C   0  0
    4.6795  -14.0658    0.0000 C   0  0
    8.2115  -17.7566    0.0000 O   0  0
    7.5037  -18.1650    0.0000 C   0  0
    9.6297  -16.9375    0.0000 N   0  0
   10.3368  -16.5278    0.0000 C   0  0
   11.0418  -16.9357    0.0000 N   0  0
   11.7484  -16.5267    0.0000 C   0  0
   11.7475  -15.7086    0.0000 C   0  0
   11.0342  -15.3013    0.0000 C   0  0
   10.3306  -15.7126    0.0000 N   0  0
   12.4541  -15.2980    0.0000 Cl  0  0
   11.0301  -14.4841    0.0000 O   0  0
   11.7357  -14.0719    0.0000 C   0  0
   12.4460  -14.4792    0.0000 C   0  0
   13.1511  -14.0677    0.0000 C   0  0
   13.1474  -13.2497    0.0000 C   0  0
   12.4326  -12.8449    0.0000 C   0  0
   11.7304  -13.2587    0.0000 C   0  0
   13.8607  -14.4731    0.0000 N   0  0
   14.5665  -14.0612    0.0000 C   0  0
   15.2761  -14.4665    0.0000 C   0  0
   14.5627  -13.2440    0.0000 O   0  0
   15.9819  -14.0547    0.0000 C   0  0
    4.6824  -13.2486    0.0000 C   0  0
    3.9761  -12.8375    0.0000 O   0  0
    5.3915  -12.8426    0.0000 O   0  0
    3.2670  -13.2436    0.0000 C   0  0
    2.5607  -12.8325    0.0000 C   0  0
    1.8521  -12.4231    0.0000 C   0  0
    1.1445  -12.0142    0.0000 C   0  0
    1.1448  -11.1970    0.0000 O   0  0
    1.9687   -9.4885    0.0000 O   0  0
    1.1515   -9.4885    0.0000 S   0  0
    1.5601  -10.1962    0.0000 O   0  0
    0.4739  -10.7294    0.0000 C   0  0
    0.4517   -9.9118    0.0000 C   0  0
   -0.3374   -9.6784    0.0000 N   0  3
   -0.7980  -10.3513    0.0000 O   0  0
   -0.3041  -11.0002    0.0000 N   0  0
    1.1368   -8.6732    0.0000 C   0  0
    1.8385   -8.2561    0.0000 C   0  0
    1.8239   -7.4398    0.0000 C   0  0
    1.1083   -7.0434    0.0000 C   0  0
    0.4059   -7.4694    0.0000 C   0  0
    0.4240   -8.2843    0.0000 C   0  0
   -0.5489   -8.8859    0.0000 O   0  5
  1  2  2  0
  2  3  1  0
  3  4  2  0
  4  5  1  0
  5  6  2  0
  6  1  1  0
  7  8  1  0
  7 12  1  0
  8  9  1  0
  9 10  1  0
 10 11  1  0
 11 12  1  0
  1  7  1  0
 10 13  1  0
  3 14  1  0
 14 15  1  0
  4 16  1  0
 16 17  1  0
 17 18  2  0
 18 19  1  0
 19 20  2  0
 20 21  1  0
 21 22  2  0
 22 17  1  0
 20 23  1  0
 21 24  1  0
 24 25  1  0
 25 26  2  0
 26 27  1  0
 27 28  2  0
 28 29  1  0
 29 30  2  0
 30 25  1  0
 27 31  1  0
 31 32  1  0
 32 33  1  0
 32 34  2  0
 33 35  2  0
 13 36  1  0
 36 37  1  0
 36 38  2  0
 37 39  1  0
 39 40  1  0
 40 41  3  0
 41 42  1  0
 42 43  1  0
 45 44  2  0
 46 45  2  0
 43 47  1  0
 47 48  1  0
 48 49  2  0
 49 50  1  0
 50 51  1  0
 51 47  2  0
 48 45  1  0
 45 52  1  0
 52 53  2  0
 53 54  1  0
 54 55  2  0
 55 56  1  0
 56 57  2  0
 57 52  1  0
 49 58  1  0
M  CHG  2  49   1  58  -1
M  END
> <chembl_id>
CHEMBL2381509

$$$$

  SciTegic04091414152D

 44 49  0  0  0  0            999 V2000
   22.1732   -0.3916    0.0000 N   0  0
   22.1720   -1.2190    0.0000 C   0  0
   22.8869   -1.6318    0.0000 N   0  0
   22.8850    0.0289    0.0000 C   0  0
   23.6004   -0.3880    0.0000 C   0  0
   23.6012   -1.2148    0.0000 C   0  0
   24.3165   -1.6258    0.0000 N   0  0
   25.0315   -1.2110    0.0000 C   0  0
   25.0267   -0.3811    0.0000 N   0  0
   24.3108    0.0322    0.0000 C   0  0
   21.4572   -1.6309    0.0000 N   0  0
   24.3182   -2.4508    0.0000 C   0  0
   25.7476   -1.6207    0.0000 O   0  0
   25.7387    0.0392    0.0000 C   0  0
   26.4556   -0.3723    0.0000 C   0  0
   26.4560   -1.1969    0.0000 C   0  0
   27.1720   -1.6050    0.0000 C   0  0
   27.8850   -1.1880    0.0000 C   0  0
   27.8773   -0.3589    0.0000 C   0  0
   27.1606    0.0462    0.0000 C   0  0
   23.6020   -2.8608    0.0000 C   0  0
   23.6033   -3.6850    0.0000 C   0  0
   24.3192   -4.0968    0.0000 N   0  0
   25.0352   -3.6785    0.0000 C   0  0
   25.0303   -2.8556    0.0000 C   0  0
   21.4566   -2.4559    0.0000 C   0  0
   20.7417   -2.8663    0.0000 C   0  0
   20.7407   -3.6905    0.0000 C   0  0
   21.4554   -4.1044    0.0000 C   0  0
   22.1725   -3.6880    0.0000 C   0  0
   22.1700   -2.8652    0.0000 C   0  0
   21.4558   -4.9294    0.0000 N   0  0
   20.7412   -5.3429    0.0000 C   0  0
   20.7397   -6.1642    0.0000 C   0  0
   21.4525   -6.5803    0.0000 N   0  0
   22.1686   -6.1686    0.0000 C   0  0
   22.1718   -5.3410    0.0000 C   0  0
   21.4499   -7.4053    0.0000 C   0  0
   20.0280   -2.4525    0.0000 O   0  0
   19.3128   -2.8636    0.0000 C   0  0
   24.3220   -4.9218    0.0000 C   0  0
   23.6090   -5.3367    0.0000 C   0  0
   25.0379   -5.3319    0.0000 O   0  0
   23.6118   -6.1617    0.0000 C   0  0
  1  2  2  0
  2  3  1  0
  3  6  2  0
  5  4  2  0
  4  1  1  0
  5  6  1  0
  6  7  1  0
  7  8  1  0
  8  9  1  0
  9 10  1  0
 10  5  1  0
  2 11  1  0
  7 12  1  0
  8 13  2  0
  9 14  1  0
 14 15  1  0
 15 16  2  0
 16 17  1  0
 17 18  2  0
 18 19  1  0
 19 20  2  0
 20 15  1  0
 12 21  1  0
 21 22  1  0
 22 23  1  0
 23 24  1  0
 24 25  1  0
 25 12  1  0
 11 26  1  0
 26 27  2  0
 27 28  1  0
 28 29  2  0
 29 30  1  0
 30 31  2  0
 31 26  1  0
 29 32  1  0
 32 33  1  0
 32 37  1  0
 33 34  1  0
 34 35  1  0
 35 36  1  0
 36 37  1  0
 35 38  1  0
 27 39  1  0
 39 40  1  0
 23 41  1  0
 41 42  1  0
 41 43  2  0
 42 44  2  0
M  END
> <chembl_id>
CHEMBL3087208

$$$$

  SciTegic04201614442D

 38 42  0  0  0  0            999 V2000
   -2.6111    0.7486    0.0000 N   0  0
   -2.6111   -0.7486    0.0000 C   0  0
   -1.2964   -1.4973    0.0000 N   0  0
   -1.2964    1.4973    0.0000 C   0  0
    0.0000    0.7486    0.0000 C   0  0
    0.0000   -0.7486    0.0000 C   0  0
    1.2964   -1.4973    0.0000 N   0  0
    1.2964    1.4973    0.0000 C   0  0
    2.5929    0.7486    0.0000 C   0  0
    2.5929   -0.7486    0.0000 C   0  0
    1.2964   -2.9980    0.0000 C   0  0
   -0.0014   -3.7503    0.0000 C   0  0
    0.0011   -5.2503    0.0000 C   0  0
    1.3014   -5.9981    0.0000 C   0  0
    2.5992   -5.2460    0.0000 C   0  0
    2.5967   -3.7460    0.0000 C   0  0
    3.9017   -5.9916    0.0000 N   0  0
    5.1991   -5.2372    0.0000 C   0  0
    6.5017   -5.9828    0.0000 C   0  0
    5.1951   -4.0372    0.0000 O   0  0
    7.5390   -5.3796    0.0000 C   0  0
   -3.9091   -1.5019    0.0000 N   0  0
   -3.9067   -3.0027    0.0000 C   0  0
   -5.2030   -3.7575    0.0000 C   0  0
   -5.1976   -5.2575    0.0000 C   0  0
   -3.8958   -6.0028    0.0000 C   0  0
   -2.5995   -5.2481    0.0000 C   0  0
   -2.6050   -3.7481    0.0000 C   0  0
   -3.8904   -7.5035    0.0000 N   0  0
   -5.1855   -8.2604    0.0000 C   0  0
   -5.1777   -9.7604    0.0000 C   0  0
   -3.8747  -10.5036    0.0000 N   0  0
   -2.5796   -9.7469    0.0000 C   0  0
   -2.5874   -8.2469    0.0000 C   0  0
   -6.5071   -3.0146    0.0000 O   0  0
   -7.5432   -3.6199    0.0000 C   0  0
    3.6321   -1.3486    0.0000 O   0  0
   -3.8685  -11.7036    0.0000 C   0  0
  1  2  2  0
  2  3  1  0
  3  6  2  0
  5  4  2  0
  4  1  1  0
  5  6  1  0
  5  8  1  0
  6  7  1  0
  7 10  1  0
  9  8  2  0
  9 10  1  0
 11 12  2  0
 12 13  1  0
 13 14  2  0
 14 15  1  0
 15 16  2  0
 16 11  1  0
  7 11  1  0
 15 17  1  0
 17 18  1  0
 18 19  1  0
 18 20  2  0
 19 21  2  0
  2 22  1  0
 22 23  1  0
 23 24  2  0
 24 25  1  0
 25 26  2  0
 26 27  1  0
 27 28  2  0
 28 23  1  0
 29 30  1  0
 29 34  1  0
 30 31  1  0
 31 32  1  0
 32 33  1  0
 33 34  1  0
 26 29  1  0
 35 36  1  0
 24 35  1  0
 10 37  2  0
 32 38  1  0
M  END
> <chembl_id>
CHEMBL3633142

$$$$

  SciTegic12191611242D

 28 31  0  0  0  0            999 V2000
   -4.8859   -8.2755    0.0000 C   0  0
   -4.8854   -9.7764    0.0000 C   0  0
   -5.9241  -10.3773    0.0000 C   0  0
   -5.9255   -7.6762    0.0000 O   0  0
   -3.5868   -7.5239    0.0000 N   0  0
   -3.5873   -6.0231    0.0000 C   0  0
   -2.2900   -5.2700    0.0000 C   0  0
   -2.2935   -3.7700    0.0000 C   0  0
   -3.5944   -3.0231    0.0000 C   0  0
   -4.8917   -3.7761    0.0000 C   0  0
   -4.8881   -5.2761    0.0000 C   0  0
   -0.9971   -3.0138    0.0000 O   0  0
   -2.3155    0.7475    0.0000 C   0  0
   -1.0028    1.5132    0.0000 N   0  0
    0.2917    0.7475    0.0000 C   0  0
    0.2917   -0.7475    0.0000 C   0  0
   -1.0028   -1.5132    0.0000 C   0  0
   -2.3155   -0.7475    0.0000 N   0  0
    1.7138    1.2033    0.0000 N   0  0
    1.7138   -1.2033    0.0000 C   0  0
    2.5889    0.0182    0.0000 C   0  0
   -3.6217    1.4865    0.0000 N   0  0
   -7.2652    0.2078    0.0000 N   0  0
   -6.2729    1.3327    0.0000 N   0  0
   -4.9153    0.7255    0.0000 C   0  0
   -5.0380   -0.7567    0.0000 C   0  0
   -6.5020   -1.0835    0.0000 C   0  0
   -8.4598    0.3210    0.0000 C   0  0
  1  2  1  0
  2  3  2  0
  1  4  2  0
  1  5  1  0
  6  7  1  0
  7  8  2  0
  8  9  1  0
  9 10  2  0
 10 11  1  0
  6 11  2  0
 13 14  1  0
 14 15  2  0
 15 16  1  0
 16 17  2  0
 17 18  1  0
 13 18  2  0
 20 21  2  0
 19 21  1  0
 15 19  1  0
 16 20  1  0
 23 24  1  0
 24 25  2  0
 25 26  1  0
 26 27  2  0
 23 27  1  0
 23 28  1  0
 22 25  1  0
 13 22  1  0
 12 17  1  0
  8 12  1  0
  5  6  1  0
M  END
> <chembl_id>
CHEMBL3786453

$$$$

  SciTegic02271217242D

 29 32  0  0  0  0            999 V2000
    9.6706   -1.5152    0.0000 N   0  0
   10.3870   -1.1019    0.0000 C   0  0
   10.3841   -0.2713    0.0000 N   0  0
    9.6688    0.1378    0.0000 C   0  0
    8.9557   -1.1023    0.0000 C   0  0
    8.9570   -0.2734    0.0000 C   0  0
    8.1690   -0.0161    0.0000 N   0  0
    7.6807   -0.6860    0.0000 C   0  0
    8.1670   -1.3572    0.0000 C   0  0
    9.6669    0.9628    0.0000 N   0  0
   10.3805    1.3769    0.0000 C   0  0
   11.0928    0.9630    0.0000 C   0  0
   11.8059    1.3764    0.0000 C   0  0
   11.8045    2.2022    0.0000 C   0  0
   11.0841    2.6130    0.0000 C   0  0
   10.3740    2.1973    0.0000 C   0  0
   12.5210    0.9651    0.0000 Cl  0  0
   12.5175    2.6173    0.0000 O   0  0
    7.9153    0.7690    0.0000 C   0  0
   13.2334    2.2073    0.0000 C   0  0
   13.2335    1.3822    0.0000 C   0  0
   13.9485    0.9723    0.0000 C   0  0
   14.6625    1.3874    0.0000 C   0  0
   14.6570    2.2167    0.0000 C   0  0
   13.9413    2.6228    0.0000 C   0  0
   15.3685    2.6342    0.0000 C   0  0
   16.0859    2.2268    0.0000 F   0  0
   15.3627    3.4592    0.0000 F   0  0
   16.0792    3.0542    0.0000 F   0  0
 13 14  2  0
 14 15  1  0
  3  4  2  0
 15 16  2  0
 16 11  1  0
  6  7  1  0
 13 17  1  0
  7  8  1  0
 14 18  1  0
  8  9  2  0
  7 19  1  0
  9  5  1  0
 18 20  1  0
  4  6  1  0
 20 21  2  0
  4 10  1  0
 21 22  1  0
  5  6  2  0
 22 23  2  0
 10 11  1  0
 23 24  1  0
  1  2  2  0
 24 25  2  0
 25 20  1  0
 11 12  2  0
 24 26  1  0
  5  1  1  0
 26 27  1  0
 12 13  1  0
 26 28  1  0
  2  3  1  0
 26 29  1  0
M  END
> <chembl_id>
CHEMBL1923004

$$$$

  SciTegic01161211252D

 44 50  0  0  0  0            999 V2000
    6.5254   -8.4509    0.0000 N   0  0
    7.2321   -8.0252    0.0000 C   0  0
    7.9542   -8.4241    0.0000 C   0  0
    7.2166   -7.2003    0.0000 O   0  0
    7.9659   -9.2497    0.0000 C   0  0
    8.6871   -9.6488    0.0000 C   0  0
    9.3947   -9.2228    0.0000 C   0  0
    9.3766   -8.3938    0.0000 C   0  0
    8.6549   -7.9985    0.0000 C   0  0
    8.6363   -7.1738    0.0000 F   0  0
    7.2583   -9.6738    0.0000 F   0  0
    5.8121   -7.2155    0.0000 C   0  0
    5.0975   -6.7985    0.0000 C   0  0
    4.3812   -7.2089    0.0000 C   0  0
    4.3783   -8.0360    0.0000 C   0  0
    5.0977   -8.4511    0.0000 C   0  0
    5.8110   -8.0383    0.0000 C   0  0
    3.6651   -8.4491    0.0000 C   0  0
    2.9117   -8.1117    0.0000 C   0  0
    3.5775   -9.2694    0.0000 N   0  0
    2.7703   -9.4398    0.0000 C   0  0
    2.3585   -8.7269    0.0000 N   0  0
    1.5533   -8.8982    0.0000 C   0  0
    1.4674   -9.7170    0.0000 C   0  0
    2.2195  -10.0516    0.0000 S   0  0
    2.9032   -7.2880    0.0000 C   0  0
    3.6155   -6.8694    0.0000 C   0  0
    3.6081   -6.0452    0.0000 C   0  0
    2.1872   -6.8850    0.0000 N   0  0
    2.1764   -6.0622    0.0000 C   0  0
    2.8905   -5.6349    0.0000 N   0  0
    1.4560   -5.6600    0.0000 N   0  0
    1.4441   -4.8351    0.0000 C   0  0
    2.1524   -4.4178    0.0000 C   0  0
    2.1409   -3.5936    0.0000 C   0  0
    1.4200   -3.1906    0.0000 C   0  0
    0.7093   -3.6179    0.0000 C   0  0
    0.7243   -4.4406    0.0000 C   0  0
    1.4070   -2.3657    0.0000 N   0  0
    2.1189   -1.9472    0.0000 C   0  0
    2.1079   -1.1259    0.0000 C   0  0
    1.3888   -0.7208    0.0000 O   0  0
    0.6791   -1.1433    0.0000 C   0  0
    0.6885   -1.9709    0.0000 C   0  0
  9  3  1  0
  9 10  1  0
  5 11  1  0
  1  2  1  0
  2  3  1  0
  2  4  2  0
  3  5  2  0
  5  6  1  0
  6  7  2  0
  7  8  1  0
  8  9  2  0
 15 18  1  0
 21 22  1  0
 15 16  1  0
 13 14  1  0
 16 17  2  0
 17 12  1  0
 18 19  2  0
 22 23  1  0
 23 24  2  0
 24 25  1  0
 30 32  1  0
 25 21  1  0
 32 33  1  0
 12 13  2  0
 33 34  2  0
 14 15  2  0
 34 35  1  0
 26 27  2  0
 35 36  2  0
 36 37  1  0
 27 28  1  0
 37 38  2  0
 38 33  1  0
 28 31  2  0
 36 39  1  0
 39 40  1  0
 19 22  1  0
 30 29  2  0
 29 26  1  0
 19 26  1  0
 30 31  1  0
 39 44  1  0
 40 41  1  0
 41 42  1  0
 42 43  1  0
 43 44  1  0
 21 20  2  0
 20 18  1  0
 17  1  1  0
M  END
> <chembl_id>
CHEMBL1090351

$$$$

  SciTegic12201611512D

 29 32  0  0  0  0            999 V2000
   -2.1332   -2.2973    0.0000 N   0  0
   -3.4277   -1.5498    0.0000 C   0  0
   -3.4277    0.0000    0.0000 N   0  0
   -2.1332    0.6928    0.0000 C   0  0
   -0.8205    0.0000    0.0000 C   0  0
    0.4558    0.6928    0.0000 C   0  0
    1.7503    0.0000    0.0000 C   0  0
    1.7503   -1.5498    0.0000 C   0  0
    0.4558   -2.2973    0.0000 C   0  0
   -0.8205   -1.5498    0.0000 C   0  0
    0.4558    2.1879    0.0000 O   0  0
    3.0631    0.6928    0.0000 O   0  0
    3.0631    2.1879    0.0000 C   0  0
    1.7503    2.9537    0.0000 C   0  0
   -2.1454    2.1947    0.0000 N   0  0
    3.0410   -2.3153    0.0000 O   0  0
    3.0239   -3.8160    0.0000 C   0  0
   -3.4508    2.9353    0.0000 C   0  0
   -3.4653    4.4352    0.0000 C   0  0
   -4.7714    5.1728    0.0000 C   0  0
   -6.0632    4.4104    0.0000 C   0  0
   -6.0489    2.9104    0.0000 C   0  0
   -4.7427    2.1729    0.0000 C   0  0
    4.3146   -4.5820    0.0000 C   0  0
    1.9778   -4.4039    0.0000 C   0  0
    4.2976   -6.0827    0.0000 O   0  0
    5.3296   -6.6951    0.0000 C   0  0
   -4.7858    6.6735    0.0000 C   0  0
   -4.7973    7.8735    0.0000 C   0  0
  1  2  1  0
  2  3  2  0
  3  4  1  0
  4  5  2  0
  5  6  1  0
  6  7  2  0
  7  8  1  0
  8  9  2  0
  9 10  1  0
  1 10  2  0
  5 10  1  0
 12 13  1  0
 13 14  1  0
 11 14  1  0
  6 11  1  0
  7 12  1  0
  4 15  1  0
 16 17  1  0
  8 16  1  0
 18 19  1  0
 19 20  2  0
 20 21  1  0
 21 22  2  0
 22 23  1  0
 18 23  2  0
 15 18  1  0
 17 24  1  0
 17 25  1  0
 24 26  1  0
 26 27  1  0
 20 28  1  0
 28 29  3  0
M  END
> <chembl_id>
CHEMBL3805584

$$$$

  SciTegic10011413212D

 46 51  0  0  0  0            999 V2000
   27.2603  -15.3904    0.0000 C   0  0
   27.2603  -16.2076    0.0000 C   0  0
   27.9656  -16.6121    0.0000 N   0  0
   28.6709  -16.2076    0.0000 C   0  0
   28.6709  -15.3904    0.0000 C   0  0
   27.9656  -14.9777    0.0000 N   0  0
   27.9656  -17.4293    0.0000 C   0  0
   27.9661  -14.1614    0.0000 C   0  0
   28.6754  -13.7534    0.0000 C   0  0
   28.6757  -12.9369    0.0000 C   0  0
   27.9675  -12.5275    0.0000 C   0  0
   27.2574  -12.9405    0.0000 C   0  0
   27.2606  -13.7556    0.0000 C   0  0
   26.5483  -12.5344    0.0000 O   0  0
   25.8420  -12.9455    0.0000 C   0  0
   27.9664  -11.7103    0.0000 N   0  0
   28.6736  -11.3008    0.0000 C   0  0
   29.3801  -11.7126    0.0000 N   0  0
   29.3729  -10.0782    0.0000 C   0  0
   28.6692  -10.4894    0.0000 N   0  0
   30.0912  -11.3023    0.0000 C   0  0
   30.0862  -10.4857    0.0000 C   0  0
   30.7241   -9.9670    0.0000 C   0  0
   30.7384  -11.8094    0.0000 N   0  0
   31.5377  -11.6189    0.0000 C   0  0
   31.5224  -10.1383    0.0000 N   0  0
   31.8849  -10.8745    0.0000 C   0  0
   30.5334   -9.1724    0.0000 O   0  0
   32.0542  -12.2521    0.0000 O   0  0
   30.5659  -12.6039    0.0000 C   0  0
   29.7858  -12.8509    0.0000 C   0  0
   29.6111  -13.6484    0.0000 C   0  0
   30.2155  -14.1997    0.0000 C   0  0
   30.9974  -13.9479    0.0000 C   0  0
   31.1684  -13.1510    0.0000 C   0  0
   31.6034  -14.4961    0.0000 N   0  0
   31.4316  -15.2951    0.0000 C   0  0
   32.0376  -15.8433    0.0000 C   0  0
   30.6538  -15.5458    0.0000 O   0  0
   31.8659  -16.6422    0.0000 C   0  0
   32.0249   -9.4939    0.0000 C   0  0
   32.8334   -9.6114    0.0000 C   0  0
   33.3358   -8.9678    0.0000 C   0  0
   33.0291   -8.2094    0.0000 C   0  0
   32.2152   -8.0984    0.0000 C   0  0
   31.7164   -8.7431    0.0000 C   0  0
  1  2  1  0
  1  6  1  0
  2  3  1  0
  3  4  1  0
  4  5  1  0
  5  6  1  0
  3  7  1  0
  8  9  2  0
  9 10  1  0
 10 11  2  0
 11 12  1  0
 12 13  2  0
 13  8  1  0
  6  8  1  0
 12 14  1  0
 14 15  1  0
 11 16  1  0
 16 17  1  0
 17 18  2  0
 18 21  1  0
 22 19  1  0
 19 20  2  0
 20 17  1  0
 21 22  2  0
 22 23  1  0
 21 24  1  0
 23 26  1  0
 24 25  1  0
 25 27  1  0
 26 27  1  0
 23 28  2  0
 25 29  2  0
 30 31  2  0
 31 32  1  0
 32 33  2  0
 33 34  1  0
 34 35  2  0
 35 30  1  0
 24 30  1  0
 34 36  1  0
 36 37  1  0
 37 38  1  0
 37 39  2  0
 38 40  2  0
 26 41  1  0
 41 42  2  0
 42 43  1  0
 43 44  2  0
 44 45  1  0
 45 46  2  0
 46 41  1  0
M  END
> <chembl_id>
CHEMBL3219132

$$$$

  SciTegic01181116592D

 41 47  0  0  0  0            999 V2000
    5.8774  -11.6744    0.0000 C   0  0  2  0  0  0
    5.3279  -12.2858    0.0000 C   0  0
    5.5807  -13.0674    0.0000 C   0  0
    6.3873  -13.2423    0.0000 C   0  0  1  0  0  0
    6.9408  -12.6292    0.0000 C   0  0
    6.6877  -11.8413    0.0000 C   0  0
    5.6196  -10.8907    0.0000 N   0  0
    9.9331   -7.4652    0.0000 C   0  0
   10.6495   -7.0519    0.0000 C   0  0
   10.6466   -6.2213    0.0000 C   0  0
    9.9313   -5.8122    0.0000 C   0  0
    9.2182   -7.0523    0.0000 C   0  0
    9.2195   -6.2234    0.0000 C   0  0
    8.4315   -5.9661    0.0000 N   0  0
    7.9432   -6.6360    0.0000 C   0  0
    8.4295   -7.3072    0.0000 O   0  0
    7.1182   -6.6348    0.0000 N   0  0
    6.7047   -7.3486    0.0000 C   0  0
    5.8814   -7.3441    0.0000 C   0  0
    5.4680   -8.0572    0.0000 C   0  0
    5.8795   -8.7732    0.0000 C   0  0
    6.7087   -8.7718    0.0000 C   0  0
    7.1185   -8.0582    0.0000 C   0  0
    5.6258   -9.5580    0.0000 C   0  0
    6.1058  -10.2221    0.0000 N   0  0
    4.8367  -10.6358    0.0000 C   0  0
    4.8385   -9.8116    0.0000 C   0  0
    4.1268   -9.3998    0.0000 C   0  0
    3.4128   -9.8110    0.0000 N   0  0
    3.4150  -10.6383    0.0000 C   0  0
    4.1273  -11.0464    0.0000 N   0  0
    6.6401  -14.0276    0.0000 N   0  0
    6.0875  -14.6376    0.0000 C   0  0
    6.3373  -15.4201    0.0000 C   0  0
    7.1432  -15.5981    0.0000 N   0  0
    7.6990  -14.9871    0.0000 C   0  0
    7.4489  -14.1982    0.0000 C   0  0
    7.3930  -16.3844    0.0000 C   0  0
    4.1279   -8.5748    0.0000 N   0  0
    9.9329   -8.2902    0.0000 Cl  0  0
    5.4715   -6.6282    0.0000 F   0  0
 19 20  1  0
  9 10  1  0
 20 21  2  0
  3  4  1  0
 21 22  1  0
 10 11  2  0
 22 23  2  0
 23 18  1  0
 11 13  1  0
 21 24  1  0
 24 27  1  0
 12 13  2  0
 26  7  1  0
  7 25  1  0
 25 24  2  0
  4  5  1  0
  5  6  1  0
 26 27  2  0
  1  2  1  0
 27 28  1  0
  1  7  1  1
 28 29  2  0
 29 30  1  0
 13 14  1  0
 30 31  2  0
 31 26  1  0
 14 15  2  0
  4 32  1  1
 32 33  1  0
 15 16  1  0
 16 12  1  0
 12  8  1  0
 15 17  1  0
  1  6  1  0
 32 37  1  0
 33 34  1  0
 34 35  1  0
 35 36  1  0
 36 37  1  0
 17 18  1  0
 35 38  1  0
  8  9  2  0
 28 39  1  0
 18 19  2  0
  8 40  1  0
  2  3  1  0
 19 41  1  0
M  END
> <chembl_id>
CHEMBL1256421

$$$$

  SciTegic01181116592D

 40 46  0  0  0  0            999 V2000
   -3.6198  -22.0682    0.0000 C   0  0  2  0  0  0
   -4.1715  -22.6808    0.0000 C   0  0
   -3.9195  -23.4629    0.0000 C   0  0
   -3.1128  -23.6388    0.0000 C   0  0  2  0  0  0
   -2.5584  -23.0262    0.0000 C   0  0
   -2.8107  -22.2376    0.0000 C   0  0
   -2.8610  -24.4247    0.0000 N   0  0
   -3.4141  -25.0338    0.0000 C   0  0
   -3.1651  -25.8169    0.0000 C   0  0
   -2.3591  -25.9959    0.0000 N   0  0
   -1.8024  -25.3854    0.0000 C   0  0
   -2.0516  -24.5959    0.0000 C   0  0
   -2.1101  -26.7828    0.0000 C   0  0
   -3.8759  -21.2837    0.0000 N   0  0
   -6.0924  -20.2075    0.0000 N   0  0
   -6.0913  -21.0310    0.0000 C   0  0
   -5.3689  -21.4439    0.0000 N   0  0
   -5.3707  -19.7945    0.0000 C   0  0
   -4.6592  -20.2038    0.0000 C   0  0
   -4.6585  -21.0310    0.0000 C   0  0
   -3.3900  -20.6203    0.0000 N   0  0
   -3.8738  -19.9500    0.0000 C   0  0
   -3.4631  -19.2348    0.0000 C   0  0
   -2.6369  -19.2367    0.0000 C   0  0
   -2.2259  -18.5219    0.0000 C   0  0
   -2.6402  -17.8071    0.0000 C   0  0
   -3.4698  -17.8116    0.0000 C   0  0
   -3.8770  -18.5269    0.0000 C   0  0
   -2.2300  -17.0909    0.0000 N   0  0
   -1.4047  -17.0880    0.0000 C   0  0
   -0.9177  -17.7487    0.0000 O   0  0
   -0.9225  -16.4134    0.0000 N   0  0
   -0.1367  -16.6655    0.0000 C   0  0
   -0.1360  -17.4880    0.0000 C   0  0
    0.5756  -17.8968    0.0000 C   0  0
    1.2869  -17.4843    0.0000 C   0  0
    1.2822  -16.6587    0.0000 C   0  0
    0.5700  -16.2535    0.0000 C   0  0
    0.5772  -18.7221    0.0000 Cl  0  0
   -5.3711  -18.9692    0.0000 N   0  0
  2  3  1  0
  3  4  1  0
  4  5  1  0
  7 12  1  0
 20 14  1  0
 14 21  1  0
 21 22  2  0
 22 19  1  0
  8  9  1  0
 22 23  1  0
  9 10  1  0
 23 24  2  0
 10 11  1  0
 24 25  1  0
 11 12  1  0
 25 26  2  0
  5  6  1  0
 26 27  1  0
 10 13  1  0
 27 28  2  0
 28 23  1  0
  1  2  1  0
 26 29  1  0
  1 14  1  1
 29 30  1  0
 30 31  1  0
  4  7  1  6
  7  8  1  0
 31 34  1  0
 33 32  1  0
 32 30  2  0
 15 16  2  0
 33 34  2  0
 16 17  1  0
 34 35  1  0
 17 20  2  0
 35 36  2  0
  1  6  1  0
 36 37  1  0
 19 18  2  0
 37 38  2  0
 38 33  1  0
 18 15  1  0
 35 39  1  0
 19 20  1  0
 18 40  1  0
M  END
> <chembl_id>
CHEMBL1257998

$$$$

  SciTegic10311316282D

 34 38  0  0  0  0            999 V2000
   36.5831  -13.4530    0.0000 S   0  0
   36.7587  -14.2591    0.0000 O   0  0
   37.3690  -13.7039    0.0000 O   0  0
   31.2030  -16.5923    0.0000 N   0  0
   31.2029  -17.4197    0.0000 C   0  0
   31.9182  -17.8317    0.0000 N   0  0
   31.9143  -16.1787    0.0000 C   0  0
   32.6302  -16.5869    0.0000 C   0  0
   32.6315  -17.4133    0.0000 C   0  0
   33.4179  -17.6675    0.0000 N   0  0
   33.9027  -16.9981    0.0000 C   0  0
   33.4159  -16.3303    0.0000 C   0  0
   33.6782  -18.4538    0.0000 C   0  0
   33.1944  -19.1220    0.0000 C   0  0
   33.6803  -19.7887    0.0000 C   0  0
   34.4646  -19.5325    0.0000 C   0  0
   34.4632  -18.7075    0.0000 C   0  0
   31.9108  -15.3537    0.0000 N   0  0
   33.6696  -15.5453    0.0000 C   0  0
   34.4763  -15.3725    0.0000 C   0  0
   35.0234  -15.9861    0.0000 C   0  0
   35.8294  -15.8138    0.0000 C   0  0
   36.0838  -15.0281    0.0000 C   0  0
   35.5260  -14.4145    0.0000 C   0  0
   34.7221  -14.5899    0.0000 C   0  0
   35.7770  -13.6286    0.0000 N   0  0
   36.8340  -12.6671    0.0000 C   0  0
   37.6395  -12.4964    0.0000 C   0  0
   37.8905  -11.7113    0.0000 C   0  0
   37.3351  -11.1001    0.0000 C   0  0
   36.5254  -11.2792    0.0000 C   0  0
   36.2782  -12.0640    0.0000 C   0  0
   38.1928  -13.1083    0.0000 F   0  0
   35.4730  -12.2439    0.0000 F   0  0
  2  1  2  0
  1  3  2  0
  4  5  2  0
  5  6  1  0
  6  9  2  0
  8  7  2  0
  7  4  1  0
  8  9  1  0
  9 10  1  0
 10 11  1  0
 11 12  2  0
 12  8  1  0
 13 14  1  0
 14 15  1  0
 15 16  1  0
 16 17  1  0
 17 13  1  0
 10 13  1  0
  7 18  1  0
 12 19  1  0
 19 20  1  0
 20 21  2  0
 21 22  1  0
 22 23  2  0
 23 24  1  0
 24 25  2  0
 25 20  1  0
 24 26  1  0
 26  1  1  0
  1 27  1  0
 27 28  2  0
 28 29  1  0
 29 30  2  0
 30 31  1  0
 31 32  2  0
 32 27  1  0
 28 33  1  0
 32 34  1  0
M  END
> <chembl_id>
CHEMBL2386997

$$$$

  SciTegic09261414462D

 31 35  0  0  0  0            999 V2000
   13.6992   -6.6641    0.0000 C   0  0
   13.9097   -5.8716    0.0000 C   0  0
   13.1173   -5.6612    0.0000 O   0  0
   12.9068   -6.4536    0.0000 C   0  0
   19.9136  -10.6138    0.0000 N   0  0
   20.6233  -10.2043    0.0000 C   0  0
   20.6204   -9.3817    0.0000 N   0  0
   19.9118   -8.9764    0.0000 C   0  0
   19.2056  -10.2048    0.0000 C   0  0
   19.2068   -9.3883    0.0000 C   0  0
   18.4306   -9.1348    0.0000 C   0  0
   17.9496   -9.7947    0.0000 C   0  0
   18.4286  -10.4559    0.0000 S   0  0
   19.9081   -8.1592    0.0000 N   0  0
   20.6139   -7.7474    0.0000 C   0  0
   21.3213   -8.1575    0.0000 C   0  0
   22.0266   -7.7463    0.0000 C   0  0
   22.0233   -6.9283    0.0000 C   0  0
   21.3087   -6.5231    0.0000 C   0  0
   20.6063   -6.9366    0.0000 C   0  0
   17.1324   -9.7935    0.0000 N   0  0
   16.7248   -9.0852    0.0000 C   0  0
   15.9076   -9.0840    0.0000 C   0  0
   17.1345   -8.3781    0.0000 O   0  0
   22.7286   -6.5155    0.0000 F   0  0
   22.7360   -8.1520    0.0000 Cl  0  0
   15.5001   -8.3757    0.0000 C   0  0
   14.6829   -8.3745    0.0000 C   0  0
   14.2753   -7.6662    0.0000 N   0  0
   14.4910   -6.8803    0.0000 C   0  0
   13.4893   -7.4567    0.0000 C   0  0
  1  2  1  0
  2  3  1  0
  3  4  1  0
  4  1  1  0
  9  5  1  0
  5  6  2  0
  6  7  1  0
  7  8  2  0
  8 10  1  0
  9 10  2  0
 10 11  1  0
 11 12  2  0
 12 13  1  0
 13  9  1  0
  8 14  1  0
 14 15  1  0
 15 16  2  0
 16 17  1  0
 17 18  2  0
 18 19  1  0
 19 20  2  0
 20 15  1  0
 12 21  1  0
 21 22  1  0
 22 23  1  0
 22 24  2  0
 18 25  1  0
 17 26  1  0
 23 27  2  0
 27 28  1  0
 28 29  1  0
 29 30  1  0
 30  1  1  0
  1 31  1  0
 31 29  1  0
M  END
> <chembl_id>
CHEMBL3233020

$$$$

  SciTegic05221516342D

 30 32  0  0  0  0            999 V2000
   11.4397  -10.9553    0.0000 C   0  0
   12.1447  -10.5467    0.0000 C   0  0
   12.1447   -9.7295    0.0000 C   0  0
   12.8538   -9.3209    0.0000 C   0  0
   11.4397  -11.7725    0.0000 O   0  0
   10.7306  -10.5467    0.0000 N   0  0
   12.8538  -10.9553    0.0000 F   0  0
   13.5629   -9.7295    0.0000 N   0  0
   14.2720   -9.3209    0.0000 C   0  0
   13.5629  -10.5467    0.0000 C   0  0
    7.9025  -12.1810    0.0000 N   0  0
    7.1934  -11.7725    0.0000 C   0  0
    7.1934  -10.9553    0.0000 N   0  0
    7.9025  -10.5467    0.0000 C   0  0
    8.6075  -10.9553    0.0000 C   0  0
    9.3166  -10.5467    0.0000 C   0  0
   10.0215  -10.9553    0.0000 C   0  0
   10.0215  -11.7725    0.0000 C   0  0
    9.3166  -12.1810    0.0000 C   0  0
    8.6075  -11.7725    0.0000 C   0  0
   10.7306  -12.1810    0.0000 O   0  0
   10.7306  -12.9982    0.0000 C   0  0
    7.9025   -9.7295    0.0000 N   0  0
    7.1934   -9.3209    0.0000 C   0  0
    6.4844   -9.7295    0.0000 C   0  0
    5.7753   -9.3209    0.0000 C   0  0
    5.7753   -8.5037    0.0000 C   0  0
    6.4844   -8.0951    0.0000 C   0  0
    7.1934   -8.5037    0.0000 C   0  0
    5.0703   -9.7295    0.0000 Br  0  0
  1  2  1  0
  2  3  2  0
  3  4  1  0
  1  5  2  0
  1  6  1  0
  2  7  1  0
  8  9  1  0
  8 10  1  0
  4  8  1  0
 11 12  1  0
 12 13  2  0
 13 14  1  0
 14 15  2  0
 15 16  1  0
 16 17  2  0
 17 18  1  0
 18 19  2  0
 19 20  1  0
 11 20  2  0
 15 20  1  0
 21 22  1  0
 18 21  1  0
 24 25  1  0
 25 26  2  0
 26 27  1  0
 27 28  2  0
 28 29  1  0
 24 29  2  0
 26 30  1  0
 23 24  1  0
 14 23  1  0
  6 17  1  0
M  END
> <chembl_id>
CHEMBL3357654

$$$$

  SciTegic01231713382D

 32 37  0  0  0  0            999 V2000
   -2.6111    0.7486    0.0000 C   0  0
   -2.6111   -0.7486    0.0000 C   0  0
   -1.2964   -1.4973    0.0000 C   0  0
   -1.2964    1.4973    0.0000 C   0  0
    0.0000    0.7486    0.0000 C   0  0
    0.0000   -0.7486    0.0000 C   0  0
    1.2964   -1.4973    0.0000 N   0  0
    2.5929   -0.7486    0.0000 C   0  0
    2.5929    0.7486    0.0000 N   0  0
    1.2964    1.4973    0.0000 C   0  0
   -3.9086    1.5029    0.0000 C   0  0
   -4.0476    2.9835    0.0000 C   0  0
   -5.5150    3.2942    0.0000 N   0  0
   -6.2640    1.9946    0.0000 N   0  0
   -5.2594    0.8807    0.0000 C   0  0
    1.2995    2.9981    0.0000 N   0  0
    2.6003    3.7467    0.0000 C   0  0
   -7.7564    1.8365    0.0000 C   0  0
   -8.7239    2.9763    0.0000 C   0  0
  -10.1995    2.7065    0.0000 C   0  0
  -10.7036    1.2938    0.0000 N   0  0
   -9.7322    0.1508    0.0000 C   0  0
   -8.2567    0.4206    0.0000 C   0  0
    2.6125    5.2583    0.0000 C   0  0
    5.2023    3.7549    0.0000 C   0  0
    3.8948    2.9937    0.0000 C   0  0
    5.2058    5.2519    0.0000 C   0  0
    3.9108    6.0036    0.0000 C   0  0
    3.9143    7.5007    0.0000 C   0  0
    5.2126    8.2460    0.0000 C   0  0
    6.5075    7.4943    0.0000 C   0  0
    6.5041    5.9973    0.0000 N   0  0
  1  2  2  0
  2  3  1  0
  3  6  2  0
  5  4  2  0
  4  1  1  0
  5  6  1  0
  6  7  1  0
  7  8  2  0
  8  9  1  0
  9 10  2  0
 10  5  1  0
 11 12  1  0
 12 13  2  0
 13 14  1  0
 14 15  1  0
 15 11  2  0
  1 11  1  0
 10 16  1  0
 16 17  1  0
 18 19  1  0
 18 23  1  0
 19 20  1  0
 20 21  1  0
 21 22  1  0
 22 23  1  0
 14 18  1  0
 17 24  2  0
 24 28  1  0
 27 25  1  0
 25 26  2  0
 26 17  1  0
 27 28  1  0
 28 29  2  0
 29 30  1  0
 30 31  2  0
 31 32  1  0
 32 27  2  0
M  END
> <chembl_id>
CHEMBL3827349

$$$$

  SciTegic04201616412D

 27 30  0  0  0  0            999 V2000
    0.0000    0.7486    0.0000 C   0  0
   -1.2964    1.4973    0.0000 C   0  0
    0.0000   -0.7486    0.0000 C   0  0
    1.2964    1.4973    0.0000 C   0  0
   -2.6111    0.7486    0.0000 N   0  0
    1.2964   -1.4973    0.0000 C   0  0
   -1.2907    2.9981    0.0000 N   0  0
    2.5929    0.7486    0.0000 C   0  0
    2.5929   -0.7486    0.0000 C   0  0
   -5.1852    3.7608    0.0000 C   0  0
   -1.2964   -1.4973    0.0000 N   0  0
   -3.8880    3.0076    0.0000 C   0  0
   -2.6111   -0.7486    0.0000 C   0  0
   -2.5870    3.7544    0.0000 C   0  0
   -5.1815    5.2608    0.0000 C   0  0
   -3.8807    6.0076    0.0000 C   0  0
   -2.5835    5.2544    0.0000 C   0  0
    3.8911   -1.5017    0.0000 O   0  0
    3.8894   -2.7017    0.0000 C   0  0
   -3.8777    7.2076    0.0000 Cl  0  0
   -1.5428    5.8519    0.0000 F   0  0
    3.8926    1.4990    0.0000 N   0  0
    5.1929    0.7510    0.0000 C   0  0
    6.4908    1.5029    0.0000 C   0  0
    6.4885    3.0029    0.0000 O   0  0
    5.1883    3.7510    0.0000 C   0  0
    3.8904    2.9990    0.0000 C   0  0
  2  1  1  0
  3  1  1  0
  4  1  2  0
  5  2  2  0
  6  3  2  0
  7  2  1  0
  8  4  1  0
  9  8  2  0
 10 12  1  0
 11  3  1  0
 12 14  2  0
 13 11  2  0
 14  7  1  0
 15 16  1  0
 16 17  2  0
 17 14  1  0
 18  9  1  0
 19 18  1  0
  6  9  1  0
 13  5  1  0
 10 15  2  0
 16 20  1  0
 17 21  1  0
  8 22  1  0
 22 23  1  0
 22 27  1  0
 23 24  1  0
 24 25  1  0
 25 26  1  0
 26 27  1  0
M  END
> <chembl_id>
CHEMBL3623279

$$$$

  SciTegic09081514162D

 47 51  0  0  0  0            999 V2000
    1.2990   -0.7500    0.0000 N   0  0
    1.2990    0.7500    0.0000 C   0  0
    0.0000    1.5000    0.0000 N   0  0
   -1.2990    0.7500    0.0000 C   0  0
   -1.2990   -0.7500    0.0000 C   0  0
    0.0000   -1.5000    0.0000 C   0  0
   -2.5973    1.5031    0.0000 O   0  0
    2.5972    1.5031    0.0000 N   0  0
    2.5951    3.0039    0.0000 C   0  0
   -3.8990    0.7562    0.0000 C   0  0
   -5.1976    1.5069    0.0000 C   0  0
   -6.4972    0.7578    0.0000 C   0  0
   -6.4981   -0.7422    0.0000 C   0  0
   -5.1996   -1.4931    0.0000 C   0  0
   -3.9001   -0.7439    0.0000 C   0  0
    3.8915    3.7585    0.0000 C   0  0
    3.8863    5.2585    0.0000 C   0  0
    2.5847    6.0040    0.0000 C   0  0
    1.2883    5.2495    0.0000 C   0  0
    1.2934    3.7495    0.0000 C   0  0
    2.5795    7.5047    0.0000 N   0  0
    3.8747    8.2614    0.0000 C   0  0
    3.8671    9.7614    0.0000 C   0  0
    2.5643   10.5048    0.0000 N   0  0
    1.2691    9.7483    0.0000 C   0  0
    1.2767    8.2483    0.0000 C   0  0
   -2.3383   -1.3500    0.0000 Cl  0  0
   -5.1975   -2.9939    0.0000 N   0  0
   -3.8972   -3.7433    0.0000 C   0  0
   -3.8950   -5.2441    0.0000 C   0  0
   -2.8586   -3.1422    0.0000 O   0  0
   -2.5947   -5.9935    0.0000 C   0  0
    2.5583   11.7048    0.0000 C   0  0
    5.1954    3.0153    0.0000 O   0  0
    6.2317    3.6204    0.0000 C   0  0
   -5.1924   -5.9986    0.0000 C   0  0
   -2.5926   -7.4944    0.0000 C   0  0
   -1.2941   -8.2453    0.0000 C   0  0
   -1.2950   -9.7453    0.0000 C   0  0
   -2.5945  -10.4944    0.0000 C   0  0
   -3.8931   -9.7436    0.0000 C   0  0
   -3.8921   -8.2436    0.0000 C   0  0
   -5.1894   -7.1986    0.0000 F   0  0
   -6.2301   -6.6014    0.0000 F   0  0
   -6.2334   -5.4016    0.0000 F   0  0
   -2.5985  -11.9953    0.0000 O   0  0
   -3.6390  -12.5931    0.0000 C   0  0
  1  2  2  0
  2  3  1  0
  3  4  2  0
  4  5  1  0
  5  6  2  0
  6  1  1  0
  4  7  1  0
  2  8  1  0
  8  9  1  0
  7 10  1  0
 10 11  2  0
 11 12  1  0
 12 13  2  0
 13 14  1  0
 14 15  2  0
 15 10  1  0
  9 16  2  0
 16 17  1  0
 17 18  2  0
 18 19  1  0
 19 20  2  0
 20  9  1  0
 21 22  1  0
 22 23  1  0
 23 24  1  0
 24 25  1  0
 25 26  1  0
 26 21  1  0
 18 21  1  0
  5 27  1  0
 14 28  1  0
 28 29  1  0
 29 30  1  0
 29 31  2  0
 30 32  2  0
 24 33  1  0
 16 34  1  0
 34 35  1  0
 30 36  1  0
 32 37  1  0
 37 38  2  0
 38 39  1  0
 39 40  2  0
 40 41  1  0
 41 42  2  0
 42 37  1  0
 36 43  1  0
 36 44  1  0
 36 45  1  0
 40 46  1  0
 46 47  1  0
M  END
> <chembl_id>
CHEMBL3425670

$$$$

  SciTegic12201615542D

 39 44  0  0  0  0            999 V2000
    1.8565   -5.2005    0.0000 C   0  0
    1.2781   -3.8165    0.0000 C   0  0
    2.1852   -2.6281    0.0000 C   0  0
    3.6753   -2.8147    0.0000 C   0  0
    4.2537   -4.1987    0.0000 C   0  0
    3.3443   -5.3916    0.0000 C   0  0
    2.5889    0.0182    0.0000 C   0  0
    1.7138   -1.2033    0.0000 N   0  0
    0.2917   -0.7475    0.0000 C   0  0
    0.2917    0.7475    0.0000 C   0  0
    1.7138    1.2033    0.0000 N   0  0
   -1.0028    1.5132    0.0000 C   0  0
   -2.3155    0.7475    0.0000 C   0  0
   -2.3155   -0.7475    0.0000 C   0  0
   -1.0028   -1.5132    0.0000 C   0  0
    4.0896    0.0290    0.0000 C   0  0
    4.9234    1.2700    0.0000 C   0  0
    4.7453   -1.3220    0.0000 N   0  0
    6.4199    1.1671    0.0000 N   0  0
    7.0791   -0.1803    0.0000 C   0  0
    6.2418   -1.4248    0.0000 C   0  0
    7.2286   -5.1568    0.0000 N   0  0
    8.5770   -4.4998    0.0000 N   0  0
    8.3688   -3.0143    0.0000 C   0  0
    6.9013   -2.7729    0.0000 C   0  0
    6.1870   -4.0774    0.0000 C   0  0
    6.2216   -9.5371    0.0000 N   0  0
    7.6659   -9.1322    0.0000 C   0  0
    8.0374   -7.6789    0.0000 C   0  0
    6.9674   -6.6347    0.0000 C   0  0
    5.5202   -7.0355    0.0000 C   0  0
    5.1488   -8.4888    0.0000 C   0  0
    5.9245  -10.6998    0.0000 C   0  0
    4.3957    2.3477    0.0000 N   0  0
    3.9201   -6.7775    0.0000 N   0  0
    3.0086   -7.9698    0.0000 C   0  0
    3.5844   -9.3557    0.0000 C   0  0
    1.8186   -7.8148    0.0000 O   0  0
    2.8555  -10.3090    0.0000 C   0  0
  1  2  1  0
  2  3  2  0
  3  4  1  0
  4  5  2  0
  5  6  1  0
  1  6  2  0
  7  8  1  0
  8  9  1  0
  9 10  1  0
 10 11  1  0
  7 11  2  0
 12 13  1  0
 13 14  2  0
 14 15  1  0
  9 15  2  0
 10 12  2  0
 16 17  1  0
 16 18  2  0
 17 19  2  0
 19 20  1  0
 20 21  2  0
 18 21  1  0
 22 23  1  0
 23 24  2  0
 24 25  1  0
 25 26  2  0
 22 26  1  0
 27 28  1  0
 28 29  1  0
 29 30  1  0
 30 31  1  0
 31 32  1  0
 27 32  1  0
 27 33  1  0
 22 30  1  0
 21 25  1  0
 17 34  1  0
  7 16  1  0
  3  8  1  0
  6 35  1  0
 35 36  1  0
 36 37  1  0
 36 38  2  0
 37 39  2  0
M  END
> <chembl_id>
CHEMBL3814859

$$$$

  SciTegic12161615062D

 33 36  0  0  0  0            999 V2000
   10.0906   -4.5762    0.0000 C   0  0
    9.5757   -3.1673    0.0000 C   0  0
   10.5385   -2.0170    0.0000 C   0  0
   12.0161   -2.2756    0.0000 C   0  0
   12.5309   -3.6845    0.0000 C   0  0
   11.5682   -4.8348    0.0000 N   0  0
    8.0979   -2.9056    0.0000 C   0  0
    7.3261   -3.8245    0.0000 O   0  0
    7.5847   -1.4952    0.0000 N   0  0
    9.3205   -5.4965    0.0000 O   0  0
   10.0263   -0.6063    0.0000 N   0  0
   10.9913    0.5432    0.0000 C   0  0
   10.4814    1.9540    0.0000 C   0  0
   11.4482    3.1009    0.0000 C   0  0
   12.9248    2.8371    0.0000 C   0  0
   13.4347    1.4265    0.0000 C   0  0
   12.4680    0.2795    0.0000 C   0  0
    9.0045    2.2210    0.0000 O   0  0
    8.5983    3.3501    0.0000 C   0  0
    6.1069   -1.2335    0.0000 C   0  0
    5.5920    0.1754    0.0000 C   0  0
    4.1145    0.4339    0.0000 C   0  0
    3.1484   -0.7186    0.0000 C   0  0
    3.6667   -2.1252    0.0000 C   0  0
    5.1442   -2.3838    0.0000 C   0  0
    1.6852   -0.3846    0.0000 N   0  0
    1.3514    1.0778    0.0000 C   0  0
    0.0000    1.7286    0.0000 C   0  0
    0.7500   -1.5574    0.0000 C   0  0
   -1.3515    1.0777    0.0000 N   0  0
   -0.7500   -1.5574    0.0000 C   0  0
   -1.6852   -0.3847    0.0000 C   0  0
   -2.2897    1.8259    0.0000 C   0  0
  1  2  1  0
  2  3  2  0
  3  4  1  0
  4  5  2  0
  5  6  1  0
  1  6  1  0
  7  8  2  0
  7  9  1  0
  2  7  1  0
  1 10  2  0
  3 11  1  0
 11 12  1  0
 12 13  2  0
 13 14  1  0
 14 15  2  0
 15 16  1  0
 16 17  2  0
 17 12  1  0
 13 18  1  0
 18 19  1  0
  9 20  1  0
 20 21  2  0
 21 22  1  0
 22 23  2  0
 23 24  1  0
 24 25  2  0
 25 20  1  0
 26 27  1  0
 27 28  1  0
 26 29  1  0
 28 30  1  0
 29 31  1  0
 30 32  1  0
 31 32  1  0
 23 26  1  0
 30 33  1  0
M  END
> <chembl_id>
CHEMBL3779957

$$$$

  SciTegic12201610342D

 39 42  0  0  0  0            999 V2000
    2.5951   -3.0039    0.0000 C   0  0
    3.8933   -3.7570    0.0000 C   0  0
    3.8916   -4.9570    0.0000 C   0  0
    1.5548   -3.6021    0.0000 O   0  0
    2.5973   -1.5031    0.0000 N   0  0
    1.2990   -0.7500    0.0000 C   0  0
    1.2990    0.7500    0.0000 C   0  0
    0.0000    1.5000    0.0000 C   0  0
   -1.2990    0.7500    0.0000 C   0  0
   -1.2990   -0.7500    0.0000 C   0  0
    0.0000   -1.5000    0.0000 C   0  0
   -0.0031    3.0008    0.0000 O   0  0
   -3.9021    3.7404    0.0000 C   0  0
   -2.6005    2.9949    0.0000 N   0  0
   -1.3039    3.7494    0.0000 C   0  0
   -1.3092    5.2494    0.0000 C   0  0
   -2.6108    5.9949    0.0000 C   0  0
   -3.9073    5.2404    0.0000 N   0  0
   -0.0136    6.0070    0.0000 S   0  0
   -0.0195    7.2070    0.0000 C   0  0
   -5.2008    2.9882    0.0000 N   0  0
   -6.5021    3.7360    0.0000 C   0  0
   -7.8012    2.9860    0.0000 C   0  0
   -9.1002    3.7360    0.0000 C   0  0
   -9.1002    5.2360    0.0000 C   0  0
   -7.8012    5.9860    0.0000 C   0  0
   -6.5021    5.2360    0.0000 C   0  0
  -10.3999    5.9864    0.0000 N   0  0
  -11.7002    5.2385    0.0000 C   0  0
  -12.9981    5.9906    0.0000 C   0  0
  -12.9957    7.4906    0.0000 N   0  0
  -11.6955    8.2385    0.0000 C   0  0
  -10.3976    7.4864    0.0000 C   0  0
  -14.2943    8.2430    0.0000 S   0  0
  -14.2920    9.4430    0.0000 C   0  0
   -7.8043    1.4852    0.0000 O   0  0
   -8.8444    0.8867    0.0000 C   0  0
  -15.3348    7.6454    0.0000 O   0  0
  -15.3322    8.8452    0.0000 O   0  0
  1  2  1  0
  2  3  2  0
  1  4  2  0
  1  5  1  0
  6  7  1  0
  7  8  2  0
  8  9  1  0
  9 10  2  0
 10 11  1  0
  6 11  2  0
 13 14  1  0
 14 15  2  0
 15 16  1  0
 16 17  2  0
 17 18  1  0
 13 18  2  0
 19 20  1  0
 16 19  1  0
 22 23  1  0
 23 24  2  0
 24 25  1  0
 25 26  2  0
 26 27  1  0
 22 27  2  0
 28 29  1  0
 29 30  1  0
 30 31  1  0
 31 32  1  0
 32 33  1  0
 28 33  1  0
 34 35  1  0
 31 34  1  0
 25 28  1  0
 36 37  1  0
 23 36  1  0
 21 22  1  0
 13 21  1  0
 12 15  1  0
  8 12  1  0
  5  6  1  0
 34 38  2  0
 34 39  2  0
M  END
> <chembl_id>
CHEMBL3797963

$$$$

  SciTegic12161615052D

 31 34  0  0  0  0            999 V2000
    1.2990   -0.7500    0.0000 C   0  0
    1.2990    0.7500    0.0000 C   0  0
    0.0000    1.5000    0.0000 C   0  0
   -1.2990    0.7500    0.0000 C   0  0
   -1.2990   -0.7500    0.0000 C   0  0
    0.0000   -1.5000    0.0000 N   0  0
    2.5972    1.5031    0.0000 C   0  0
    3.6375    0.9049    0.0000 O   0  0
    2.5951    3.0039    0.0000 N   0  0
    2.3383   -1.3500    0.0000 O   0  0
    3.8933    3.7570    0.0000 C   0  0
    3.8933    5.2571    0.0000 C   0  0
    5.1924    6.0071    0.0000 C   0  0
    6.4914    5.2571    0.0000 C   0  0
    6.4915    3.7571    0.0000 C   0  0
    5.1925    3.0071    0.0000 C   0  0
    7.7911    6.0075    0.0000 N   0  0
    7.7935    7.5076    0.0000 C   0  0
    9.0937    8.2556    0.0000 C   0  0
   10.3916    7.5036    0.0000 N   0  0
   10.3893    6.0036    0.0000 C   0  0
    9.0891    5.2556    0.0000 C   0  0
   11.4318    8.1019    0.0000 C   0  0
   -0.0031    3.0008    0.0000 N   0  0
   -1.3039    3.7494    0.0000 C   0  0
   -2.6005    2.9949    0.0000 C   0  0
   -3.9021    3.7404    0.0000 C   0  0
   -3.9073    5.2404    0.0000 N   0  0
   -2.6108    5.9949    0.0000 C   0  0
   -1.3092    5.2494    0.0000 C   0  0
   -0.2721    5.8530    0.0000 N   0  0
  1  2  1  0
  2  3  2  0
  3  4  1  0
  4  5  2  0
  5  6  1  0
  1  6  1  0
  7  8  2  0
  7  9  1  0
  2  7  1  0
  1 10  2  0
 11 12  1  0
 12 13  2  0
 13 14  1  0
 14 15  2  0
 15 16  1  0
 11 16  2  0
 17 18  1  0
 18 19  1  0
 19 20  1  0
 20 21  1  0
 21 22  1  0
 17 22  1  0
 20 23  1  0
 14 17  1  0
  9 11  1  0
  3 24  1  0
 24 25  1  0
 25 26  2  0
 26 27  1  0
 27 28  2  0
 28 29  1  0
 29 30  2  0
 30 25  1  0
 30 31  1  0
M  END
> <chembl_id>
CHEMBL3781676

$$$$

  SciTegic10311316282D

 35 39  0  0  0  0            999 V2000
   11.1488  -16.0005    0.0000 N   0  0
   11.1487  -16.8279    0.0000 C   0  0
   11.8640  -17.2399    0.0000 N   0  0
   11.8601  -15.5869    0.0000 C   0  0
   12.5760  -15.9951    0.0000 C   0  0
   12.5773  -16.8215    0.0000 C   0  0
   13.3637  -17.0757    0.0000 N   0  0
   13.8485  -16.4063    0.0000 C   0  0
   13.3617  -15.7385    0.0000 C   0  0
   13.6240  -17.8620    0.0000 C   0  0
   13.1402  -18.5302    0.0000 C   0  0
   13.6261  -19.1969    0.0000 C   0  0
   14.4104  -18.9407    0.0000 C   0  0
   14.4090  -18.1157    0.0000 C   0  0
   11.8566  -14.7619    0.0000 N   0  0
   13.6154  -14.9535    0.0000 C   0  0
   14.4221  -14.7807    0.0000 C   0  0
   13.0624  -14.3413    0.0000 O   0  0
   14.9692  -15.3943    0.0000 C   0  0
   15.7752  -15.2220    0.0000 C   0  0
   16.0296  -14.4363    0.0000 C   0  0
   15.4718  -13.8227    0.0000 C   0  0
   14.6679  -13.9981    0.0000 C   0  0
   15.7228  -13.0368    0.0000 N   0  0
   16.5289  -12.8612    0.0000 C   0  0
   16.7798  -12.0753    0.0000 N   0  0
   17.0840  -13.4715    0.0000 O   0  0
   17.5859  -11.8996    0.0000 C   0  0
   18.1386  -12.5108    0.0000 C   0  0
   18.9440  -12.3357    0.0000 C   0  0
   19.1956  -11.5491    0.0000 C   0  0
   18.6357  -10.9374    0.0000 C   0  0
   17.8323  -11.1157    0.0000 C   0  0
   17.2746  -10.5077    0.0000 Cl  0  0
   20.0015  -11.3724    0.0000 Cl  0  0
  1  2  2  0
  2  3  1  0
  3  6  2  0
  5  4  2  0
  4  1  1  0
  5  6  1  0
  6  7  1  0
  7  8  1  0
  8  9  2  0
  9  5  1  0
 10 11  1  0
 11 12  1  0
 12 13  1  0
 13 14  1  0
 14 10  1  0
  7 10  1  0
  4 15  1  0
  9 16  1  0
 16 17  1  0
 16 18  2  0
 17 19  2  0
 19 20  1  0
 20 21  2  0
 21 22  1  0
 22 23  2  0
 23 17  1  0
 22 24  1  0
 24 25  1  0
 25 26  1  0
 25 27  2  0
 26 28  1  0
 28 29  2  0
 29 30  1  0
 30 31  2  0
 31 32  1  0
 32 33  2  0
 33 28  1  0
 33 34  1  0
 31 35  1  0
M  END
> <chembl_id>
CHEMBL2386999

$$$$

  SciTegic06051313552D

 28 32  0  0  0  0            999 V2000
   17.5847   -3.0747    0.0000 C   0  0
   17.5836   -3.8943    0.0000 C   0  0
   18.2916   -4.3032    0.0000 C   0  0
   19.0013   -3.8938    0.0000 C   0  0
   18.9985   -3.0711    0.0000 C   0  0
   18.2898   -2.6659    0.0000 C   0  0
   19.6791   -2.6190    0.0000 C   0  0
   20.4464   -2.9002    0.0000 C   0  0
   20.9509   -2.2573    0.0000 C   0  0
   20.4950   -1.5794    0.0000 N   0  0
   19.7095   -1.8024    0.0000 N   0  0
   20.9006   -0.8699    0.0000 C   0  0
   21.7654   -2.2875    0.0000 C   0  0
   23.0114   -1.6241    0.0000 C   0  0
   22.1968   -1.5974    0.0000 C   0  0
   21.7156   -0.8695    0.0000 C   0  0
   22.1211   -0.1609    0.0000 C   0  0
   21.7094    0.5518    0.0000 C   0  0
   20.8880    0.5414    0.0000 C   0  0
   20.4863   -0.1693    0.0000 C   0  0
   22.1475   -3.0084    0.0000 C   0  0
   23.3965   -2.3472    0.0000 C   0  0
   22.9625   -3.0393    0.0000 C   0  0
   23.3449   -3.7591    0.0000 C   0  0
   24.1610   -3.7880    0.0000 C   0  0
   24.5933   -3.0912    0.0000 C   0  0
   24.2085   -2.3742    0.0000 C   0  0
   16.8755   -4.3023    0.0000 Cl  0  0
  1  2  2  0
  2  3  1  0
  3  4  2  0
  4  5  1  0
  5  6  2  0
  6  1  1  0
  7  8  1  0
  8  9  1  0
  9 10  1  0
 10 11  1  0
 11  7  2  0
  5  7  1  0
 10 12  1  0
 13 21  2  0
 22 14  1  0
 14 15  2  0
 15 13  1  0
  9 13  1  0
 12 16  2  0
 16 17  1  0
 17 18  2  0
 18 19  1  0
 19 20  2  0
 20 12  1  0
 23 21  1  0
 22 23  1  0
 23 24  2  0
 24 25  1  0
 25 26  2  0
 26 27  1  0
 27 22  2  0
  2 28  1  0
M  END
> <chembl_id>
CHEMBL2325097

$$$$

  Mrv0541 04051115152D          

 23 26  0  0  0  0            999 V2000
   -2.3769   -2.0617    0.0000 C   0  0  0  0  0  0  0  0  0  0  0  0
   -1.5564   -1.9755    0.0000 C   0  0  0  0  0  0  0  0  0  0  0  0
   -1.0715   -2.6429    0.0000 C   0  0  0  0  0  0  0  0  0  0  0  0
   -1.2209   -1.2218    0.0000 N   0  0  0  0  0  0  0  0  0  0  0  0
   -0.4139   -1.0503    0.0000 N   0  0  0  0  0  0  0  0  0  0  0  0
   -1.6334   -0.5074    0.0000 C   0  0  0  0  0  0  0  0  0  0  0  0
   -2.4403   -0.3358    0.0000 N   0  0  0  0  0  0  0  0  0  0  0  0
   -2.6953    0.4488    0.0000 C   0  0  0  0  0  0  0  0  0  0  0  0
   -2.1432    1.0619    0.0000 N   0  0  0  0  0  0  0  0  0  0  0  0
   -1.3363    0.8904    0.0000 C   0  0  0  0  0  0  0  0  0  0  0  0
   -0.7842    1.5035    0.0000 N   0  0  0  0  0  0  0  0  0  0  0  0
   -1.0813    0.1057    0.0000 C   0  0  0  0  0  0  0  0  0  0  0  0
   -0.3276   -0.2298    0.0000 C   0  0  0  0  0  0  0  0  0  0  0  0
    0.3868    0.1827    0.0000 C   0  0  0  0  0  0  0  0  0  0  0  0
    1.1013   -0.2298    0.0000 C   0  0  0  0  0  0  0  0  0  0  0  0
    1.8158    0.1827    0.0000 C   0  0  0  0  0  0  0  0  0  0  0  0
    2.5302   -0.2298    0.0000 C   0  0  0  0  0  0  0  0  0  0  0  0
    3.2447    0.1827    0.0000 C   0  0  0  0  0  0  0  0  0  0  0  0
    3.2447    1.0077    0.0000 C   0  0  0  0  0  0  0  0  0  0  0  0
    2.5302    1.4202    0.0000 N   0  0  0  0  0  0  0  0  0  0  0  0
    1.8158    1.0077    0.0000 C   0  0  0  0  0  0  0  0  0  0  0  0
    1.1013    1.4202    0.0000 C   0  0  0  0  0  0  0  0  0  0  0  0
    0.3868    1.0077    0.0000 C   0  0  0  0  0  0  0  0  0  0  0  0
  1  2  1  0  0  0  0
  3  2  1  0  0  0  0
  2  4  1  0  0  0  0
  5  4  1  0  0  0  0
  6  4  1  0  0  0  0
 13  5  2  0  0  0  0
  6  7  2  0  0  0  0
  6 12  1  0  0  0  0
  8  7  1  0  0  0  0
  8  9  2  0  0  0  0
 10  9  1  0  0  0  0
 10 11  1  0  0  0  0
 12 10  2  0  0  0  0
 12 13  1  0  0  0  0
 14 13  1  0  0  0  0
 15 14  2  0  0  0  0
 23 14  1  0  0  0  0
 15 16  1  0  0  0  0
 17 16  2  0  0  0  0
 16 21  1  0  0  0  0
 18 17  1  0  0  0  0
 18 19  2  0  0  0  0
 19 20  1  0  0  0  0
 21 20  2  0  0  0  0
 22 21  1  0  0  0  0
 23 22  2  0  0  0  0
M  END
> <chembl_id>
CHEMBL1233882

$$$$

  SciTegic10311316282D

 35 39  0  0  0  0            999 V2000
    0.5113  -15.9048    0.0000 N   0  0
    0.5112  -16.7322    0.0000 C   0  0
    1.2266  -17.1442    0.0000 N   0  0
    1.2227  -15.4912    0.0000 C   0  0
    1.9386  -15.8994    0.0000 C   0  0
    1.9399  -16.7258    0.0000 C   0  0
    2.7263  -16.9800    0.0000 N   0  0
    3.2111  -16.3106    0.0000 C   0  0
    2.7243  -15.6428    0.0000 C   0  0
    2.9866  -17.7663    0.0000 C   0  0
    2.5027  -18.4345    0.0000 C   0  0
    2.9887  -19.1012    0.0000 C   0  0
    3.7730  -18.8450    0.0000 C   0  0
    3.7716  -18.0200    0.0000 C   0  0
    1.2191  -14.6662    0.0000 N   0  0
    2.9780  -14.8578    0.0000 C   0  0
    3.7847  -14.6850    0.0000 C   0  0
    2.4250  -14.2456    0.0000 O   0  0
    4.3318  -15.2986    0.0000 C   0  0
    5.1378  -15.1263    0.0000 C   0  0
    5.3922  -14.3406    0.0000 C   0  0
    4.8344  -13.7270    0.0000 C   0  0
    4.0304  -13.9024    0.0000 C   0  0
    5.0854  -12.9411    0.0000 N   0  0
    5.8914  -12.7655    0.0000 C   0  0
    6.1424  -11.9796    0.0000 O   0  0
    6.4466  -13.3758    0.0000 N   0  0
    7.2527  -13.2001    0.0000 C   0  0
    7.8051  -13.8110    0.0000 C   0  0
    8.6105  -13.6359    0.0000 C   0  0
    8.8621  -12.8493    0.0000 C   0  0
    8.3021  -12.2376    0.0000 C   0  0
    7.4988  -12.4159    0.0000 C   0  0
    7.5528  -14.5965    0.0000 F   0  0
    6.9410  -11.8081    0.0000 F   0  0
  1  2  2  0
  2  3  1  0
  3  6  2  0
  5  4  2  0
  4  1  1  0
  5  6  1  0
  6  7  1  0
  7  8  1  0
  8  9  2  0
  9  5  1  0
 10 11  1  0
 11 12  1  0
 12 13  1  0
 13 14  1  0
 14 10  1  0
  7 10  1  0
  4 15  1  0
  9 16  1  0
 16 17  1  0
 16 18  2  0
 17 19  2  0
 19 20  1  0
 20 21  2  0
 21 22  1  0
 22 23  2  0
 23 17  1  0
 22 24  1  0
 24 25  1  0
 25 26  2  0
 25 27  1  0
 27 28  1  0
 28 29  2  0
 29 30  1  0
 30 31  2  0
 31 32  1  0
 32 33  2  0
 33 28  1  0
 29 34  1  0
 33 35  1  0
M  END
> <chembl_id>
CHEMBL2386994

$$$$

  SciTegic12171313052D

 27 30  0  0  0  0            999 V2000
    0.7415   -3.4916    0.0000 C   0  0
    0.7403   -4.3111    0.0000 C   0  0
    1.4484   -4.7201    0.0000 C   0  0
    2.1580   -4.3107    0.0000 C   0  0
    2.1552   -3.4880    0.0000 C   0  0
    1.4466   -3.0827    0.0000 C   0  0
    1.4442   -2.2655    0.0000 N   0  0
    2.1506   -1.8548    0.0000 C   0  0
    2.8610   -2.2657    0.0000 N   0  0
    2.8511   -0.6314    0.0000 C   0  0
    2.1481   -1.0437    0.0000 N   0  0
    3.5650   -1.0377    0.0000 C   0  0
    3.5658   -1.8574    0.0000 C   0  0
    4.2722   -2.2643    0.0000 N   0  0
    4.9823   -1.8560    0.0000 C   0  0
    4.9816   -1.0363    0.0000 C   0  0
    4.2706   -0.6249    0.0000 N   0  0
    4.2734   -3.0788    0.0000 C   0  0
    3.5638   -3.4865    0.0000 C   0  0
    3.5631   -4.3029    0.0000 C   0  0
    4.2712   -4.7127    0.0000 C   0  0
    4.9814   -4.3000    0.0000 C   0  0
    4.9787   -3.4849    0.0000 C   0  0
    5.6899   -2.2649    0.0000 O   0  0
    1.4482   -5.5373    0.0000 O   0  0
    0.7404   -5.9457    0.0000 C   0  0
    4.2720   -5.5299    0.0000 N   0  0
  1  2  2  0
  2  3  1  0
  3  4  2  0
  4  5  1  0
  5  6  2  0
  6  1  1  0
  6  7  1  0
  7  8  1  0
  8  9  2  0
  9 13  1  0
 12 10  1  0
 10 11  2  0
 11  8  1  0
 12 13  2  0
 12 17  1  0
 13 14  1  0
 14 15  1  0
 15 16  1  0
 16 17  2  0
 18 19  2  0
 19 20  1  0
 20 21  2  0
 21 22  1  0
 22 23  2  0
 23 18  1  0
 14 18  1  0
 15 24  2  0
  3 25  1  0
 25 26  1  0
 21 27  1  0
M  END
> <chembl_id>
CHEMBL2437472

$$$$

  SciTegic01161211252D

 42 48  0  0  0  0            999 V2000
    6.6439   -9.1892    0.0000 N   0  0
    7.3521   -8.7658    0.0000 C   0  0
    7.3394   -7.9408    0.0000 O   0  0
    8.0728   -9.1674    0.0000 C   0  0
    8.0854   -9.9923    0.0000 C   0  0
    7.4267  -10.4877    0.0000 C   0  0
    7.6935  -11.2684    0.0000 C   0  0
    8.5187  -11.2557    0.0000 C   0  0
    8.7614  -10.4673    0.0000 C   0  0
    5.9306   -7.9536    0.0000 C   0  0
    5.2160   -7.5367    0.0000 C   0  0
    4.4996   -7.9471    0.0000 C   0  0
    4.4967   -8.7743    0.0000 C   0  0
    5.2162   -9.1894    0.0000 C   0  0
    5.9295   -8.7766    0.0000 C   0  0
    3.7835   -9.1873    0.0000 C   0  0
    3.0300   -8.8500    0.0000 C   0  0
    3.6959  -10.0077    0.0000 N   0  0
    2.8886  -10.1781    0.0000 C   0  0
    2.4768   -9.4651    0.0000 N   0  0
    1.6715   -9.6365    0.0000 C   0  0
    1.5856  -10.4554    0.0000 C   0  0
    2.3378  -10.7900    0.0000 S   0  0
    3.0215   -8.0261    0.0000 C   0  0
    3.7339   -7.6076    0.0000 C   0  0
    3.7265   -6.7833    0.0000 C   0  0
    2.3055   -7.6232    0.0000 N   0  0
    2.2947   -6.8003    0.0000 C   0  0
    3.0088   -6.3729    0.0000 N   0  0
    1.5742   -6.3981    0.0000 N   0  0
    1.5623   -5.5731    0.0000 C   0  0
    2.2707   -5.1557    0.0000 C   0  0
    2.2592   -4.3315    0.0000 C   0  0
    1.5382   -3.9285    0.0000 C   0  0
    0.8275   -4.3557    0.0000 C   0  0
    0.8425   -5.1786    0.0000 C   0  0
    1.5252   -3.1035    0.0000 N   0  0
    2.2372   -2.6850    0.0000 C   0  0
    2.2262   -1.8635    0.0000 C   0  0
    1.5070   -1.4584    0.0000 O   0  0
    0.7973   -1.8809    0.0000 C   0  0
    0.8067   -2.7086    0.0000 C   0  0
  2  4  1  0
  4  5  1  0
  5  6  1  0
  6  7  1  0
  7  8  1  0
  8  9  1  0
  9  5  1  0
  1  2  1  0
  2  3  2  0
 19 18  2  0
 18 16  1  0
 13 16  1  0
 19 20  1  0
 13 14  1  0
 11 12  1  0
 28 30  1  0
 14 15  2  0
 30 31  1  0
 15 10  1  0
 31 32  2  0
 16 17  2  0
 32 33  1  0
 20 21  1  0
 33 34  2  0
 21 22  2  0
 34 35  1  0
 22 23  1  0
 35 36  2  0
 36 31  1  0
 23 19  1  0
 34 37  1  0
 37 38  1  0
 10 11  2  0
 12 13  2  0
 24 25  2  0
 25 26  1  0
 37 42  1  0
 38 39  1  0
 39 40  1  0
 40 41  1  0
 41 42  1  0
 26 29  2  0
 17 20  1  0
 28 27  2  0
 27 24  1  0
 17 24  1  0
 28 29  1  0
 15  1  1  0
M  END
> <chembl_id>
CHEMBL1090353

$$$$

  SciTegic01161211262D

 32 37  0  0  0  0            999 V2000
    6.3116  -16.5847    0.0000 N   0  0
    6.3104  -17.4121    0.0000 C   0  0
    7.0253  -17.8250    0.0000 C   0  0
    7.0235  -16.1718    0.0000 C   0  0
    7.7389  -16.5811    0.0000 C   0  0
    7.7437  -17.4075    0.0000 N   0  0
    8.5313  -17.6584    0.0000 C   0  0
    9.0133  -16.9868    0.0000 N   0  0
    8.5235  -16.3211    0.0000 C   0  0
    7.0211  -15.3468    0.0000 N   0  0
    8.7895  -18.4377    0.0000 C   0  0  2  0  0  0
    8.4192  -19.1750    0.0000 C   0  0
    9.1566  -19.5453    0.0000 C   0  0  1  0  0  0
    9.5268  -18.8081    0.0000 C   0  0
    8.7382  -20.2559    0.0000 O   0  0
    9.8675  -19.9559    0.0000 C   0  0
    8.7743  -15.5387    0.0000 C   0  0
    9.5817  -15.3635    0.0000 C   0  0
    8.4666  -14.1471    0.0000 C   0  0
    8.2200  -14.9321    0.0000 C   0  0
    9.2763  -13.9673    0.0000 C   0  0
    9.8292  -14.5758    0.0000 C   0  0
   10.6306  -14.4006    0.0000 N   0  0
   10.8802  -13.6174    0.0000 C   0  0
   10.3222  -13.0093    0.0000 C   0  0
    9.5228  -13.1876    0.0000 C   0  0
   11.6829  -13.4409    0.0000 C   0  0
   12.2393  -14.0517    0.0000 C   0  0
   13.0444  -13.8745    0.0000 C   0  0
   13.2941  -13.0872    0.0000 C   0  0
   12.7326  -12.4768    0.0000 C   0  0
   11.9296  -12.6572    0.0000 C   0  0
 13 15  1  1
  5  4  1  0
 13 16  1  0
  6  7  1  0
  7  8  2  0
 17 18  2  0
 18 22  1  0
  8  9  1  0
 21 19  1  0
  9  5  2  0
 19 20  2  0
 20 17  1  0
  9 17  1  0
  4  1  2  0
  4 10  1  0
 21 22  1  0
 11 12  1  0
 22 23  2  0
  5  6  1  0
 23 24  1  0
 24 25  2  0
  2  3  2  0
 25 26  1  0
 26 21  2  0
  3  6  1  0
 12 13  1  0
 27 28  2  0
 13 14  1  0
 28 29  1  0
 14 11  1  0
 29 30  2  0
 11  7  1  1
 30 31  1  0
  1  2  1  0
 31 32  2  0
 32 27  1  0
 24 27  1  0
M  END
> <chembl_id>
CHEMBL1091644

$$$$

  SciTegic06051313552D

 26 29  0  0  0  0            999 V2000
   19.3635  -15.6298    0.0000 C   0  0
   19.3624  -16.4493    0.0000 C   0  0
   20.0704  -16.8583    0.0000 C   0  0
   20.7801  -16.4488    0.0000 C   0  0
   20.7773  -15.6261    0.0000 C   0  0
   20.0687  -15.2209    0.0000 C   0  0
   21.4579  -15.1740    0.0000 C   0  0
   22.2252  -15.4552    0.0000 C   0  0
   22.7298  -14.8124    0.0000 C   0  0
   22.2739  -14.1344    0.0000 N   0  0
   21.4883  -14.3574    0.0000 N   0  0
   22.6794  -13.4250    0.0000 C   0  0
   23.4966  -13.4215    0.0000 N   0  0
   22.2678  -12.7190    0.0000 S   0  0
   23.5442  -14.8425    0.0000 C   0  0
   23.9259  -15.5663    0.0000 C   0  0
   24.7903  -14.1792    0.0000 C   0  0
   23.9756  -14.1524    0.0000 C   0  0
   25.1769  -14.9039    0.0000 C   0  0
   24.7413  -15.5944    0.0000 C   0  0
   25.1215  -16.3148    0.0000 C   0  0
   25.9371  -16.3459    0.0000 C   0  0
   26.3710  -15.6507    0.0000 C   0  0
   25.9884  -14.9331    0.0000 C   0  0
   18.6544  -16.8573    0.0000 O   0  0
   17.9470  -16.4482    0.0000 C   0  0
  1  2  2  0
  2  3  1  0
  3  4  2  0
  4  5  1  0
  5  6  2  0
  6  1  1  0
  7  8  1  0
  8  9  1  0
  9 10  1  0
 10 11  1  0
 11  7  2  0
  5  7  1  0
 10 12  1  0
 12 13  1  0
 12 14  2  0
 15 16  2  0
 16 20  1  0
 19 17  1  0
 17 18  2  0
 18 15  1  0
  9 15  1  0
 19 20  1  0
 20 21  2  0
 21 22  1  0
 22 23  2  0
 23 24  1  0
 24 19  2  0
  2 25  1  0
 25 26  1  0
M  END
> <chembl_id>
CHEMBL2324872

$$$$

  SciTegic08011209522D

 38 42  0  0  0  0            999 V2000
   21.9069    3.1584    0.0000 N   0  0
   21.9057    2.3310    0.0000 C   0  0
   22.6206    1.9181    0.0000 N   0  0
   22.6188    3.5711    0.0000 C   0  0
   23.3341    3.1620    0.0000 C   0  0
   23.3376    2.3289    0.0000 C   0  0
   24.0567    1.9176    0.0000 N   0  0
   24.7771    2.3348    0.0000 C   0  0
   24.7737    3.1679    0.0000 N   0  0
   24.0499    3.5838    0.0000 C   0  0
   24.0607    1.0961    0.0000 C   0  0
   23.3457    0.6822    0.0000 C   0  0
   23.3476   -0.1420    0.0000 C   0  0
   24.0638   -0.5534    0.0000 C   0  0
   24.7795   -0.1345    0.0000 C   0  0
   24.7741    0.6884    0.0000 C   0  0
   21.1909    1.9191    0.0000 N   0  0
   21.1903    1.0941    0.0000 C   0  0
   20.4754    0.6837    0.0000 C   0  0
   20.4744   -0.1405    0.0000 C   0  0
   21.1891   -0.5544    0.0000 C   0  0
   21.9062   -0.1381    0.0000 C   0  0
   21.9037    0.6848    0.0000 C   0  0
   25.4927    1.9243    0.0000 O   0  0
   25.4965   -0.5425    0.0000 N   0  0
   25.5017   -1.3675    0.0000 C   0  0
   26.2187   -1.7755    0.0000 C   0  0
   24.7898   -1.7845    0.0000 O   0  0
   26.2239   -2.6005    0.0000 C   0  0
   21.1895   -1.3794    0.0000 N   0  0
   25.4869    3.5826    0.0000 C   0  0
   20.4726   -1.7890    0.0000 C   0  0
   20.4711   -2.6104    0.0000 C   0  0
   21.1839   -3.0264    0.0000 C   0  0
   21.9000   -2.6147    0.0000 C   0  0
   21.9032   -1.7871    0.0000 C   0  0
   19.7617    1.0975    0.0000 O   0  0
   19.7632    1.9225    0.0000 C   0  0
 17 18  1  0
  6  7  1  0
 18 19  2  0
  7  8  1  0
 19 20  1  0
  8  9  1  0
 20 21  2  0
  9 10  1  0
 21 22  1  0
  5  6  1  0
 22 23  2  0
 23 18  1  0
  8 24  2  0
 11 12  2  0
 15 25  1  0
  2  3  1  0
 25 26  1  0
 12 13  1  0
 26 27  1  0
  3  6  2  0
 26 28  2  0
 13 14  2  0
 27 29  2  0
  1  2  2  0
 21 30  1  0
 14 15  1  0
  9 31  1  0
 30 32  1  0
  5  4  2  0
 15 16  2  0
 16 11  1  0
  7 11  1  0
  4  1  1  0
 30 36  1  0
 32 33  1  0
 33 34  1  0
 34 35  1  0
 35 36  1  0
  2 17  1  0
 19 37  1  0
  5 10  1  0
 37 38  1  0
M  END
> <chembl_id>
CHEMBL2032378

$$$$

  SciTegic11131810052D

 33 36  0  0  0  0            999 V2000
    3.6387   -0.8963    0.0000 C   0  0
    2.6003   -1.4977    0.0000 O   0  0
    1.2990   -0.7500    0.0000 C   0  0
    1.2990    0.7500    0.0000 C   0  0
    0.0000    1.5000    0.0000 C   0  0
    0.0000    3.0000    0.0000 N   0  0
   -1.2991    3.7500    0.0000 C   0  0
   -2.5981    3.0000    0.0000 N   0  0
   -2.5981    1.5000    0.0000 C   0  0
   -3.8994    0.7522    0.0000 N   0  0
   -5.1981    1.5045    0.0000 C   0  0
   -6.4998    0.7590    0.0000 C   0  0
   -7.7962    1.5135    0.0000 C   0  0
   -7.7910    3.0135    0.0000 C   0  0
   -8.8282    3.6171    0.0000 F   0  0
   -6.4894    3.7590    0.0000 C   0  0
   -6.4853    4.9590    0.0000 Cl  0  0
   -5.1930    3.0045    0.0000 C   0  0
   -1.2990    0.7500    0.0000 C   0  0
   -1.2990   -0.7500    0.0000 C   0  0
    0.0000   -1.5000    0.0000 C   0  0
   -0.0031   -3.0008    0.0000 N   0  0
   -1.3039   -3.7494    0.0000 C   0  0
   -2.3421   -3.1476    0.0000 O   0  0
   -1.3070   -5.2502    0.0000 C   0  0
   -2.6078   -5.9988    0.0000 C   0  0
   -2.6109   -7.4996    0.0000 C   0  0
   -3.9117   -8.2482    0.0000 N   0  0
   -3.9170   -9.7482    0.0000 C   0  0
   -5.2186  -10.4937    0.0000 C   0  0
   -6.5150   -9.7392    0.0000 C   0  0
   -6.5099   -8.2392    0.0000 C   0  0
   -5.2082   -7.4937    0.0000 C   0  0
  1  2  1  0
  2  3  1  0
  3  4  2  0
  4  5  1  0
  5  6  2  0
  6  7  1  0
  7  8  2  0
  8  9  1  0
  9 10  1  0
 10 11  1  0
 11 12  2  0
 12 13  1  0
 13 14  2  0
 14 15  1  0
 14 16  1  0
 16 17  1  0
 16 18  2  0
 18 11  1  0
  9 19  2  0
 19  5  1  0
 19 20  1  0
 20 21  2  0
 21  3  1  0
 21 22  1  0
 22 23  1  0
 23 24  2  0
 23 25  1  0
 25 26  2  0
 26 27  1  0
 27 28  1  0
 28 29  1  0
 29 30  1  0
 30 31  1  0
 31 32  1  0
 32 33  1  0
 33 28  1  0
M  END
> <chembl_id>
CHEMBL2110732

$$$$

  SciTegic02271217242D

 37 40  0  0  0  0            999 V2000
    8.2333    1.9333    0.0000 C   0  0
   12.1122   -2.2694    0.0000 N   0  0
   12.8287   -1.8560    0.0000 C   0  0
   12.8258   -1.0255    0.0000 N   0  0
   12.1104   -0.6164    0.0000 C   0  0
   11.3974   -1.8565    0.0000 C   0  0
   11.3986   -1.0276    0.0000 C   0  0
   10.6107   -0.7702    0.0000 N   0  0
   10.1224   -1.4401    0.0000 C   0  0
   10.6087   -2.1114    0.0000 C   0  0
   12.1086    0.2086    0.0000 N   0  0
   12.8222    0.6227    0.0000 C   0  0
   13.5344    0.2088    0.0000 C   0  0
   14.2475    0.6222    0.0000 C   0  0
   14.2462    1.4481    0.0000 C   0  0
   13.5258    1.8588    0.0000 C   0  0
   12.8156    1.4431    0.0000 C   0  0
   14.9627    0.2109    0.0000 Cl  0  0
   14.9592    1.8631    0.0000 O   0  0
   10.3569    0.0148    0.0000 C   0  0
   15.6751    1.4531    0.0000 C   0  0
   15.6751    0.6281    0.0000 C   0  0
   16.3902    0.2182    0.0000 C   0  0
   17.1042    0.6333    0.0000 C   0  0
   17.0986    1.4625    0.0000 C   0  0
   16.3830    1.8687    0.0000 C   0  0
   17.8102    1.8800    0.0000 C   0  0
   18.5275    1.4726    0.0000 F   0  0
   17.8044    2.7050    0.0000 F   0  0
   18.5208    2.3000    0.0000 F   0  0
    9.5502    0.1876    0.0000 C   0  0
    9.2965    0.9726    0.0000 N   0  0
    8.4898    1.1453    0.0000 C   0  0
    7.9368    0.5331    0.0000 O   0  0
    8.7851    2.5467    0.0000 C   0  0
    7.4263    2.1045    0.0000 C   0  0
    8.0167    2.7333    0.0000 O   0  0
 14 18  1  0
  8  9  1  0
 15 19  1  0
  9 10  2  0
  8 20  1  0
 10  6  1  0
 19 21  1  0
  5  7  1  0
 21 22  2  0
  5 11  1  0
 22 23  1  0
  6  7  2  0
 23 24  2  0
 11 12  1  0
 24 25  1  0
  2  3  2  0
 25 26  2  0
 26 21  1  0
 12 13  2  0
 25 27  1  0
  6  2  1  0
 27 28  1  0
 13 14  1  0
 27 29  1  0
  3  4  1  0
 27 30  1  0
 14 15  2  0
 20 31  1  0
 31 32  1  0
 15 16  1  0
 32 33  1  0
 33  1  1  0
  4  5  2  0
 33 34  2  0
 16 17  2  0
  1 35  1  0
 17 12  1  0
  1 36  1  0
  7  8  1  0
  1 37  1  0
M  END
> <chembl_id>
CHEMBL1923021

$$$$

  SciTegic02271217242D

 26 29  0  0  0  0            999 V2000
   -2.7836   -1.4819    0.0000 N   0  0
   -2.0672   -1.0685    0.0000 C   0  0
   -2.0700   -0.2380    0.0000 N   0  0
   -2.7854    0.1711    0.0000 C   0  0
   -3.4984   -1.0690    0.0000 C   0  0
   -3.4972   -0.2401    0.0000 C   0  0
   -4.2852    0.0173    0.0000 N   0  0
   -4.7734   -0.6526    0.0000 C   0  0
   -4.2872   -1.3239    0.0000 C   0  0
   -2.7872    0.9961    0.0000 N   0  0
   -2.0737    1.4102    0.0000 C   0  0
   -1.3614    0.9963    0.0000 C   0  0
   -0.6483    1.4097    0.0000 C   0  0
   -0.6497    2.2356    0.0000 C   0  0
   -1.3701    2.6463    0.0000 C   0  0
   -2.0802    2.2306    0.0000 C   0  0
    0.0669    0.9984    0.0000 Cl  0  0
    0.0633    2.6506    0.0000 O   0  0
   -4.5389    0.8023    0.0000 C   0  0
    0.7793    2.2406    0.0000 C   0  0
    0.7793    1.4156    0.0000 C   0  0
    1.4944    1.0057    0.0000 C   0  0
    2.2084    1.4208    0.0000 C   0  0
    2.2028    2.2500    0.0000 C   0  0
    1.4871    2.6562    0.0000 C   0  0
    2.9143    2.6675    0.0000 Cl  0  0
  5  1  1  0
 12 13  1  0
  2  3  1  0
 13 14  2  0
 14 15  1  0
  3  4  2  0
 15 16  2  0
 16 11  1  0
  6  7  1  0
 13 17  1  0
  7  8  1  0
 14 18  1  0
  8  9  2  0
  7 19  1  0
  9  5  1  0
 18 20  1  0
  4  6  1  0
 20 21  2  0
  4 10  1  0
 21 22  1  0
  5  6  2  0
 22 23  2  0
 10 11  1  0
 23 24  1  0
  1  2  2  0
 24 25  2  0
 25 20  1  0
 11 12  2  0
 24 26  1  0
M  END
> <chembl_id>
CHEMBL1923003

$$$$

  SciTegic10011413212D

 26 28  0  0  0  0            999 V2000
   14.4232  -18.2506    0.0000 N   0  0
   14.4221  -19.0701    0.0000 C   0  0
   15.1301  -19.4791    0.0000 N   0  0
   15.8398  -19.0696    0.0000 C   0  0
   15.8370  -18.2470    0.0000 C   0  0
   15.1284  -17.8417    0.0000 C   0  0
   16.5482  -19.4771    0.0000 N   0  0
   17.2552  -19.0674    0.0000 C   0  0
   17.9602  -19.4753    0.0000 C   0  0
   18.6668  -19.0663    0.0000 C   0  0
   18.6660  -18.2482    0.0000 C   0  0
   17.9527  -17.8409    0.0000 C   0  0
   17.2490  -18.2523    0.0000 C   0  0
   15.1259  -17.0245    0.0000 N   0  0
   17.9485  -17.0237    0.0000 N   0  0
   18.6541  -16.6115    0.0000 C   0  0
   18.6499  -15.7944    0.0000 O   0  0
   19.3639  -17.0165    0.0000 C   0  0
   20.0695  -16.6043    0.0000 C   0  0
   14.4170  -16.6180    0.0000 C   0  0
   14.4179  -15.8016    0.0000 C   0  0
   13.7098  -15.3952    0.0000 C   0  0
   13.0023  -15.8059    0.0000 C   0  0
   13.0074  -16.6274    0.0000 C   0  0
   13.7161  -17.0301    0.0000 C   0  0
   12.3032  -17.0372    0.0000 Br  0  0
  1  2  2  0
  2  3  1  0
  3  4  2  0
  4  5  1  0
  5  6  2  0
  6  1  1  0
  4  7  1  0
  7  8  1  0
  8  9  2  0
  9 10  1  0
 10 11  2  0
 11 12  1  0
 12 13  2  0
 13  8  1  0
  6 14  1  0
 12 15  1  0
 15 16  1  0
 16 17  2  0
 16 18  1  0
 18 19  1  0
 14 20  1  0
 20 21  2  0
 21 22  1  0
 22 23  2  0
 23 24  1  0
 24 25  2  0
 25 20  1  0
 24 26  1  0
M  END
> <chembl_id>
CHEMBL3218347

$$$$

  SciTegic04191617032D

 36 39  0  0  0  0            999 V2000
    1.2990   -0.7500    0.0000 C   0  0
    1.2990    0.7500    0.0000 C   0  0
    0.0000    1.5000    0.0000 N   0  0
   -1.2990    0.7500    0.0000 C   0  0
   -1.2990   -0.7500    0.0000 N   0  0
    0.0000   -1.5000    0.0000 C   0  0
    0.0031   -3.0008    0.0000 N   0  0
    1.3039   -3.7494    0.0000 C   0  0
    1.4469   -5.2297    0.0000 C   0  0
    2.9152   -5.5365    0.0000 C   0  0
    3.6607   -4.2349    0.0000 N   0  0
    2.6532   -3.1236    0.0000 N   0  0
   -2.6003    1.4977    0.0000 O   0  0
   -3.8990    0.7455    0.0000 C   0  0
   -5.2007    1.4909    0.0000 C   0  0
   -6.4972    0.7364    0.0000 C   0  0
   -6.4920   -0.7636    0.0000 C   0  0
   -5.1903   -1.5091    0.0000 C   0  0
   -3.8939   -0.7546    0.0000 C   0  0
    2.5987    1.5004    0.0000 N   0  0
    3.8991    0.7525    0.0000 C   0  0
    5.1969    1.5046    0.0000 C   0  0
    5.1945    3.0046    0.0000 N   0  0
    3.8943    3.7525    0.0000 C   0  0
    2.5964    3.0004    0.0000 C   0  0
    6.2328    3.6062    0.0000 C   0  0
    3.4071   -6.6311    0.0000 C   0  0
   -7.7876   -1.5212    0.0000 N   0  0
   -7.7802   -3.0220    0.0000 C   0  0
   -9.0758   -3.7796    0.0000 C   0  0
   -6.7379   -3.6166    0.0000 O   0  0
   -9.0685   -5.2804    0.0000 C   0  0
  -10.3641   -6.0379    0.0000 C   0  0
  -10.3582   -7.2379    0.0000 F   0  0
  -11.4003   -6.6432    0.0000 F   0  0
  -11.4064   -5.4434    0.0000 F   0  0
  1  2  2  0
  2  3  1  0
  3  4  2  0
  4  5  1  0
  5  6  2  0
  6  1  1  0
  6  7  1  0
  7  8  1  0
  8  9  1  0
  9 10  2  0
 10 11  1  0
 11 12  1  0
 12  8  2  0
  4 13  1  0
 13 14  1  0
 14 15  2  0
 15 16  1  0
 16 17  2  0
 17 18  1  0
 18 19  2  0
 19 14  1  0
  2 20  1  0
 20 21  1  0
 20 25  1  0
 21 22  1  0
 22 23  1  0
 23 24  1  0
 24 25  1  0
 23 26  1  0
 10 27  1  0
 17 28  1  0
 28 29  1  0
 29 30  1  0
 29 31  2  0
 30 32  2  0
 32 33  1  0
 33 34  1  0
 33 35  1  0
 33 36  1  0
M  END
> <chembl_id>
CHEMBL3604936

$$$$

  SciTegic09261414462D

 32 34  0  0  0  0            999 V2000
    7.8208  -11.3113    0.0000 N   0  0
    8.5305  -10.9018    0.0000 C   0  0
    8.5277  -10.0792    0.0000 N   0  0
    7.8190   -9.6739    0.0000 C   0  0
    7.1128  -10.9023    0.0000 C   0  0
    7.1140  -10.0858    0.0000 C   0  0
    6.3378   -9.8323    0.0000 C   0  0
    5.8568  -10.4922    0.0000 C   0  0
    6.3358  -11.1534    0.0000 S   0  0
    7.8153   -8.8567    0.0000 N   0  0
    8.5211   -8.4449    0.0000 C   0  0
    9.2285   -8.8550    0.0000 C   0  0
    9.9338   -8.4439    0.0000 C   0  0
    9.9305   -7.6258    0.0000 C   0  0
    9.2160   -7.2206    0.0000 C   0  0
    8.5135   -7.6341    0.0000 C   0  0
    5.0396  -10.4910    0.0000 N   0  0
    4.6321   -9.7827    0.0000 C   0  0
    3.8149   -9.7815    0.0000 C   0  0
    5.0417   -9.0756    0.0000 O   0  0
   10.6358   -7.2130    0.0000 F   0  0
   10.6432   -8.8495    0.0000 Cl  0  0
    3.4073   -9.0732    0.0000 C   0  0
    2.5901   -9.0720    0.0000 C   0  0
    2.1825   -8.3637    0.0000 N   0  0
    2.5922   -7.6566    0.0000 C   0  0
    1.3653   -8.3625    0.0000 C   0  0
    0.9578   -7.6542    0.0000 C   0  0
    1.3674   -6.9471    0.0000 C   0  0
    0.9598   -6.2388    0.0000 N   0  0
    1.3695   -5.5317    0.0000 C   0  0
    0.1426   -6.2376    0.0000 C   0  0
  5  1  1  0
  1  2  2  0
  2  3  1  0
  3  4  2  0
  4  6  1  0
  5  6  2  0
  6  7  1  0
  7  8  2  0
  8  9  1  0
  9  5  1  0
  4 10  1  0
 10 11  1  0
 11 12  2  0
 12 13  1  0
 13 14  2  0
 14 15  1  0
 15 16  2  0
 16 11  1  0
  8 17  1  0
 17 18  1  0
 18 19  1  0
 18 20  2  0
 14 21  1  0
 13 22  1  0
 19 23  2  0
 23 24  1  0
 24 25  1  0
 25 26  1  0
 25 27  1  0
 27 28  1  0
 28 29  1  0
 29 30  1  0
 30 31  1  0
 30 32  1  0
M  END
> <chembl_id>
CHEMBL3233781

$$$$

  SciTegic04301217312D

 20 22  0  0  0  0            999 V2000
   -4.3563  -10.9201    0.0000 C   0  0
   -4.3563  -11.7463    0.0000 C   0  0
   -3.6433  -12.1552    0.0000 C   0  0
   -3.6433  -10.5028    0.0000 O   0  0
   -2.9303  -10.9201    0.0000 C   0  0
   -2.9292  -11.7463    0.0000 C   0  0
   -2.2171  -12.1562    0.0000 C   0  0
   -1.5015  -11.7444    0.0000 N   0  0
   -2.2192  -10.5038    0.0000 C   0  0
   -1.5069  -10.9205    0.0000 C   0  0
   -0.7938  -10.5143    0.0000 C   0  0
   -0.7866   -9.6896    0.0000 C   0  0
   -1.4990   -9.2729    0.0000 C   0  0
   -2.2184   -9.6808    0.0000 C   0  0
   -3.6435  -12.9814    0.0000 O   0  0
   -5.0731  -10.5091    0.0000 O   0  0
   -2.2172  -12.9824    0.0000 O   0  0
   -0.7849  -12.1557    0.0000 C   0  0
   -0.0682   -9.2816    0.0000 O   0  0
    0.6443   -9.6998    0.0000 C   0  0
  3  6  1  0
  5  4  1  0
  5  6  2  0
  1  2  1  0
  1  4  1  0
  9 14  1  0
 10 11  1  0
 11 12  2  0
 12 13  1  0
 13 14  2  0
  2  3  2  0
  3 15  1  0
  5  9  1  0
  1 16  2  0
  6  7  1  0
  7 17  2  0
  7  8  1  0
  8 18  1  0
  8 10  1  0
 12 19  1  0
  9 10  2  0
 19 20  1  0
M  END
> <chembl_id>
CHEMBL1944928

$$$$

  SciTegic12171313052D

 38 42  0  0  0  0            999 V2000
    1.7774   -4.0942    0.0000 C   0  0
    1.7763   -4.9137    0.0000 C   0  0
    2.4843   -5.3227    0.0000 C   0  0
    3.1940   -4.9132    0.0000 C   0  0
    3.1911   -4.0906    0.0000 C   0  0
    2.4825   -3.6853    0.0000 C   0  0
    2.4801   -2.8681    0.0000 N   0  0
    3.1866   -2.4574    0.0000 C   0  0
    3.8970   -2.8683    0.0000 N   0  0
    3.8871   -1.2339    0.0000 C   0  0
    3.1840   -1.6463    0.0000 N   0  0
    4.6010   -1.6402    0.0000 C   0  0
    4.6018   -2.4600    0.0000 C   0  0
    5.3081   -2.8669    0.0000 N   0  0
    6.0183   -2.4586    0.0000 C   0  0
    6.0175   -1.6389    0.0000 C   0  0
    5.3066   -1.2274    0.0000 N   0  0
    5.3093   -3.6814    0.0000 C   0  0
    4.5998   -4.0891    0.0000 C   0  0
    4.5991   -4.9055    0.0000 C   0  0
    5.3072   -5.3152    0.0000 C   0  0
    6.0174   -4.9026    0.0000 C   0  0
    6.0146   -4.0875    0.0000 C   0  0
    6.7258   -2.8675    0.0000 O   0  0
    6.7264   -5.3090    0.0000 N   0  0
    6.7289   -6.1261    0.0000 C   0  0
    7.4379   -6.5325    0.0000 O   0  0
    6.0225   -6.5369    0.0000 C   0  0
    5.3135   -6.1305    0.0000 C   0  0
    2.4847   -6.1349    0.0000 N   0  0
    1.7751   -6.5421    0.0000 C   0  0
    1.7729   -7.3558    0.0000 C   0  0
    2.4787   -7.7683    0.0000 N   0  0
    3.1883   -7.3611    0.0000 C   0  0
    3.1921   -6.5414    0.0000 C   0  0
    2.4754   -8.5855    0.0000 C   0  0
    1.0696   -3.6857    0.0000 O   0  0
    1.0694   -2.8686    0.0000 C   0  0
  1  2  2  0
  2  3  1  0
  3  4  2  0
  4  5  1  0
  5  6  2  0
  6  1  1  0
  6  7  1  0
  7  8  1  0
  8  9  2  0
  9 13  1  0
 12 10  1  0
 10 11  2  0
 11  8  1  0
 12 13  2  0
 12 17  1  0
 13 14  1  0
 14 15  1  0
 15 16  1  0
 16 17  2  0
 18 19  2  0
 19 20  1  0
 20 21  2  0
 21 22  1  0
 22 23  2  0
 23 18  1  0
 14 18  1  0
 15 24  2  0
 22 25  1  0
 25 26  1  0
 26 27  2  0
 26 28  1  0
 28 29  2  0
 30 31  1  0
 30 35  1  0
 31 32  1  0
 32 33  1  0
 33 34  1  0
 34 35  1  0
  3 30  1  0
 33 36  1  0
  1 37  1  0
 37 38  1  0
M  END
> <chembl_id>
CHEMBL2437469

$$$$

  SciTegic06051313552D

 29 33  0  0  0  0            999 V2000
    1.2656  -31.3091    0.0000 C   0  0
    1.2645  -32.1287    0.0000 C   0  0
    1.9725  -32.5376    0.0000 C   0  0
    2.6822  -32.1282    0.0000 C   0  0
    2.6794  -31.3055    0.0000 C   0  0
    1.9708  -30.9003    0.0000 C   0  0
    3.3600  -30.8534    0.0000 C   0  0
    4.1273  -31.1345    0.0000 C   0  0
    4.6319  -30.4917    0.0000 C   0  0
    4.1760  -29.8137    0.0000 N   0  0
    3.3904  -30.0368    0.0000 N   0  0
    4.5815  -29.1043    0.0000 C   0  0
    5.4464  -30.5218    0.0000 C   0  0
    6.6924  -29.8585    0.0000 C   0  0
    5.8777  -29.8317    0.0000 C   0  0
    7.0790  -30.5832    0.0000 C   0  0
    5.3966  -29.1039    0.0000 C   0  0
    5.8021  -28.3952    0.0000 C   0  0
    5.3904  -27.6883    0.0000 C   0  0
    4.5690  -27.6945    0.0000 C   0  0
    4.1672  -28.4036    0.0000 C   0  0
    6.6434  -31.2737    0.0000 C   0  0
    5.8284  -31.2428    0.0000 C   0  0
    5.3959  -31.9321    0.0000 C   0  0
    5.7773  -32.6528    0.0000 C   0  0
    6.5955  -32.6799    0.0000 C   0  0
    7.0244  -31.9899    0.0000 C   0  0
    0.5565  -32.5367    0.0000 O   0  0
   -0.1545  -32.1275    0.0000 C   0  0
  1  2  2  0
  2  3  1  0
  3  4  2  0
  4  5  1  0
  5  6  2  0
  6  1  1  0
  7  8  1  0
  8  9  1  0
  9 10  1  0
 10 11  1  0
 11  7  2  0
  5  7  1  0
 10 12  1  0
 13 23  2  0
 16 14  1  0
 14 15  2  0
 15 13  1  0
  9 13  1  0
 16 22  2  0
 12 17  2  0
 17 18  1  0
 18 19  2  0
 19 20  1  0
 20 21  2  0
 21 12  1  0
 22 23  1  0
 23 24  1  0
 24 25  2  0
 25 26  1  0
 26 27  2  0
 27 22  1  0
  2 28  1  0
 28 29  1  0
M  END
> <chembl_id>
CHEMBL2325092

$$$$

  SciTegic05221516342D

 29 33  0  0  0  0            999 V2000
   13.1305  -27.2471    0.0000 C   0  0
   12.3133  -27.2471    0.0000 C   0  0
   11.9047  -26.5421    0.0000 C   0  0
   12.3133  -25.8330    0.0000 C   0  0
   13.1305  -25.8330    0.0000 C   0  0
   13.5391  -26.5421    0.0000 N   0  0
   11.1063  -26.7088    0.0000 N   0  0
   11.7696  -27.8536    0.0000 C   0  0
   11.0223  -27.5233    0.0000 C   0  0
   13.5391  -25.1240    0.0000 N   0  0
    9.4266  -28.9131    0.0000 N   0  0
    9.0180  -28.2081    0.0000 N   0  0
    9.5659  -27.5975    0.0000 C   0  0
   10.3132  -27.9319    0.0000 C   0  0
   10.2292  -28.7423    0.0000 C   0  0
   15.5820  -25.8330    0.0000 C   0  0
   14.7649  -25.8330    0.0000 N   0  0
   14.3563  -25.1240    0.0000 C   0  0
   14.7649  -24.4190    0.0000 C   0  0
   15.5820  -24.4190    0.0000 C   0  0
   15.9906  -25.1240    0.0000 N   0  0
   15.9906  -26.5421    0.0000 N   0  0
   16.8078  -26.5421    0.0000 C   0  0
   17.2164  -27.2471    0.0000 C   0  0
   16.8078  -27.9562    0.0000 C   0  0
   15.9906  -27.9562    0.0000 C   0  0
   15.5820  -27.2471    0.0000 C   0  0
   17.2164  -28.6611    0.0000 O   0  0
   18.0336  -28.6611    0.0000 C   0  0
  1  2  1  0
  2  3  2  0
  3  4  1  0
  4  5  2  0
  5  6  1  0
  1  6  2  0
  8  9  2  0
  7  9  1  0
  2  8  1  0
  3  7  1  0
  5 10  1  0
 11 12  1  0
 12 13  2  0
 13 14  1  0
 14 15  2  0
 11 15  1  0
  9 14  1  0
 16 17  1  0
 17 18  2  0
 18 19  1  0
 19 20  2  0
 20 21  1  0
 16 21  2  0
 22 23  1  0
 23 24  1  0
 24 25  1  0
 25 26  1  0
 26 27  1  0
 22 27  1  0
 28 29  1  0
 25 28  1  0
 16 22  1  0
 10 18  1  0
M  END
> <chembl_id>
CHEMBL3354186

$$$$

  SciTegic09261414462D

 33 35  0  0  0  0            999 V2000
   30.8879   -5.0709    0.0000 N   0  0
   31.5976   -4.6615    0.0000 C   0  0
   31.5947   -3.8388    0.0000 N   0  0
   30.8861   -3.4336    0.0000 C   0  0
   30.1799   -4.6619    0.0000 C   0  0
   30.1811   -3.8454    0.0000 C   0  0
   29.4049   -3.5919    0.0000 C   0  0
   28.9239   -4.2518    0.0000 C   0  0
   29.4029   -4.9130    0.0000 S   0  0
   30.8824   -2.6164    0.0000 N   0  0
   31.5882   -2.2045    0.0000 C   0  0
   32.2956   -2.6146    0.0000 C   0  0
   33.0009   -2.2035    0.0000 C   0  0
   32.9976   -1.3854    0.0000 C   0  0
   32.2830   -0.9803    0.0000 C   0  0
   31.5806   -1.3938    0.0000 C   0  0
   28.1067   -4.2506    0.0000 N   0  0
   27.6991   -3.5423    0.0000 C   0  0
   26.8819   -3.5411    0.0000 C   0  0
   28.1088   -2.8352    0.0000 O   0  0
   33.7029   -0.9726    0.0000 F   0  0
   33.7103   -2.6092    0.0000 Cl  0  0
   26.4744   -2.8328    0.0000 C   0  0
   25.6572   -2.8317    0.0000 C   0  0
   25.2496   -2.1234    0.0000 N   0  0
   25.6592   -1.4162    0.0000 C   0  0
   26.4764   -1.4174    0.0000 C   0  0
   26.8861   -0.7103    0.0000 N   0  0
   27.7032   -0.7115    0.0000 C   0  0
   26.4785   -0.0020    0.0000 C   0  0
   26.8881    0.7051    0.0000 C   0  0
   28.1129   -0.0044    0.0000 C   0  0
   24.4324   -2.1222    0.0000 C   0  0
  5  1  1  0
  1  2  2  0
  2  3  1  0
  3  4  2  0
  4  6  1  0
  5  6  2  0
  6  7  1  0
  7  8  2  0
  8  9  1  0
  9  5  1  0
  4 10  1  0
 10 11  1  0
 11 12  2  0
 12 13  1  0
 13 14  2  0
 14 15  1  0
 15 16  2  0
 16 11  1  0
  8 17  1  0
 17 18  1  0
 18 19  1  0
 18 20  2  0
 14 21  1  0
 13 22  1  0
 19 23  2  0
 23 24  1  0
 24 25  1  0
 25 26  1  0
 26 27  1  0
 27 28  1  0
 28 29  1  0
 28 30  1  0
 30 31  1  0
 29 32  1  0
 25 33  1  0
M  END
> <chembl_id>
CHEMBL3233780

$$$$

  SciTegic12171313052D

 36 40  0  0  0  0            999 V2000
   28.1133  -10.4872    0.0000 C   0  0
   28.1121  -11.3068    0.0000 C   0  0
   28.8202  -11.7158    0.0000 C   0  0
   29.5298  -11.3063    0.0000 C   0  0
   29.5270  -10.4837    0.0000 C   0  0
   28.8184  -10.0784    0.0000 C   0  0
   28.8159   -9.2612    0.0000 N   0  0
   29.5224   -8.8505    0.0000 C   0  0
   30.2328   -9.2614    0.0000 N   0  0
   30.2229   -7.6270    0.0000 C   0  0
   29.5198   -8.0394    0.0000 N   0  0
   30.9368   -8.0333    0.0000 C   0  0
   30.9376   -8.8531    0.0000 C   0  0
   31.6440   -9.2600    0.0000 N   0  0
   32.3541   -8.8517    0.0000 C   0  0
   32.3533   -8.0320    0.0000 C   0  0
   31.6424   -7.6205    0.0000 N   0  0
   31.6451  -10.0745    0.0000 C   0  0
   30.9356  -10.4822    0.0000 C   0  0
   30.9349  -11.2986    0.0000 C   0  0
   31.6430  -11.7083    0.0000 C   0  0
   32.3532  -11.2956    0.0000 C   0  0
   32.3504  -10.4806    0.0000 C   0  0
   33.0617   -9.2606    0.0000 O   0  0
   33.0622  -11.7020    0.0000 N   0  0
   33.0647  -12.5192    0.0000 C   0  0
   33.7737  -12.9256    0.0000 O   0  0
   32.3583  -12.9300    0.0000 C   0  0
   31.6493  -12.5236    0.0000 C   0  0
   28.8205  -12.5280    0.0000 N   0  0
   28.1109  -12.9352    0.0000 C   0  0
   28.1088  -13.7488    0.0000 C   0  0
   28.8145  -14.1614    0.0000 N   0  0
   29.5242  -13.7542    0.0000 C   0  0
   29.5280  -12.9344    0.0000 C   0  0
   28.8113  -14.9786    0.0000 C   0  0
  1  2  2  0
  2  3  1  0
  3  4  2  0
  4  5  1  0
  5  6  2  0
  6  1  1  0
  6  7  1  0
  7  8  1  0
  8  9  2  0
  9 13  1  0
 12 10  1  0
 10 11  2  0
 11  8  1  0
 12 13  2  0
 12 17  1  0
 13 14  1  0
 14 15  1  0
 15 16  1  0
 16 17  2  0
 18 19  2  0
 19 20  1  0
 20 21  2  0
 21 22  1  0
 22 23  2  0
 23 18  1  0
 14 18  1  0
 15 24  2  0
 22 25  1  0
 25 26  1  0
 26 27  2  0
 26 28  1  0
 28 29  2  0
 30 31  1  0
 30 35  1  0
 31 32  1  0
 32 33  1  0
 33 34  1  0
 34 35  1  0
  3 30  1  0
 33 36  1  0
M  END
> <chembl_id>
CHEMBL2437462

$$$$

  SciTegic12121614122D

 41 45  0  0  0  0            999 V2000
   -1.2913    7.5063    0.0000 C   0  0
   -2.5882    8.2616    0.0000 C   0  0
   -2.5845    9.4615    0.0000 C   0  0
   -0.2500    8.1028    0.0000 O   0  0
   -1.2959    6.0055    0.0000 N   0  0
    0.0011    5.2503    0.0000 C   0  0
   -0.0014    3.7503    0.0000 C   0  0
    1.2964    2.9980    0.0000 C   0  0
    2.5967    3.7460    0.0000 C   0  0
    2.5992    5.2460    0.0000 C   0  0
    1.3014    5.9981    0.0000 C   0  0
   -2.6111    0.7486    0.0000 C   0  0
   -1.2964    1.4973    0.0000 N   0  0
    0.0000    0.7486    0.0000 C   0  0
    0.0000   -0.7486    0.0000 C   0  0
   -1.2964   -1.4973    0.0000 C   0  0
   -2.6111   -0.7486    0.0000 N   0  0
    1.2964   -1.4973    0.0000 C   0  0
    2.5929   -0.7486    0.0000 C   0  0
    2.5929    0.7486    0.0000 C   0  0
    1.2964    1.4973    0.0000 N   0  0
    3.6321    1.3486    0.0000 O   0  0
   -3.9122    1.4966    0.0000 N   0  0
   -5.2109    0.7445    0.0000 C   0  0
   -6.5125    1.4901    0.0000 C   0  0
   -7.8091    0.7359    0.0000 C   0  0
   -7.8042   -0.7641    0.0000 C   0  0
   -6.5027   -1.5098    0.0000 C   0  0
   -5.2061   -0.7556    0.0000 C   0  0
   -6.5206    2.9910    0.0000 O   0  0
   -7.8239    3.7352    0.0000 C   0  0
   -7.8320    5.2360    0.0000 C   0  0
   -8.8740    5.8310    0.0000 C   0  0
   -9.1014   -1.5188    0.0000 N   0  0
  -10.4041   -0.7752    0.0000 C   0  0
  -11.6995   -1.5315    0.0000 C   0  0
  -11.6922   -3.0315    0.0000 N   0  0
  -10.3895   -3.7751    0.0000 C   0  0
   -9.0942   -3.0188    0.0000 C   0  0
  -12.7285   -3.6365    0.0000 C   0  0
    1.2964   -2.6973    0.0000 C   0  0
  1  2  1  0
  2  3  2  0
  1  4  2  0
  1  5  1  0
  6  7  1  0
  7  8  2  0
  8  9  1  0
  9 10  2  0
 10 11  1  0
  6 11  2  0
 12 13  1  0
 13 14  2  0
 14 15  1  0
 15 16  2  0
 16 17  1  0
 12 17  2  0
 18 19  2  0
 19 20  1  0
 20 21  1  0
 14 21  1  0
 15 18  1  0
 20 22  2  0
 24 25  1  0
 25 26  2  0
 26 27  1  0
 27 28  2  0
 28 29  1  0
 24 29  2  0
 31 32  1  0
 32 33  1  0
 30 31  1  0
 25 30  1  0
 34 35  1  0
 35 36  1  0
 36 37  1  0
 37 38  1  0
 38 39  1  0
 34 39  1  0
 37 40  1  0
 27 34  1  0
 23 24  1  0
 12 23  1  0
 18 41  1  0
  8 21  1  0
  5  6  1  0
M  END
> <chembl_id>
CHEMBL3754213

$$$$

  SciTegic12201616162D

 31 34  0  0  0  0            999 V2000
    3.8942   -1.4964    0.0000 N   0  0
    5.1929   -0.7441    0.0000 C   0  0
    5.1908    0.4559    0.0000 S   0  0
    6.4942   -1.4919    0.0000 N   0  0
    7.7928   -0.7396    0.0000 C   0  0
    9.0941   -1.4873    0.0000 C   0  0
   12.9858    0.7740    0.0000 C   0  0
   12.9909   -0.7260    0.0000 C   0  0
   11.6945   -1.4805    0.0000 C   0  0
   10.3928   -0.7351    0.0000 N   0  0
   10.3877    0.7650    0.0000 C   0  0
   11.6841    1.5195    0.0000 C   0  0
   -1.2964    1.4973    0.0000 N   0  0
   -2.6111    0.7486    0.0000 C   0  0
   -2.6111   -0.7486    0.0000 N   0  0
   -1.2964   -1.4973    0.0000 C   0  0
    0.0000   -0.7486    0.0000 C   0  0
    1.2964   -1.4973    0.0000 C   0  0
    2.5929   -0.7486    0.0000 C   0  0
    2.5929    0.7486    0.0000 C   0  0
    1.2964    1.4973    0.0000 C   0  0
    0.0000    0.7486    0.0000 C   0  0
   -1.2907   -2.9981    0.0000 N   0  0
   -2.5870   -3.7544    0.0000 C   0  0
   -2.5835   -5.2544    0.0000 C   0  0
   -3.8807   -6.0076    0.0000 C   0  0
   -5.1815   -5.2608    0.0000 C   0  0
   -5.1852   -3.7608    0.0000 C   0  0
   -3.8880   -3.0076    0.0000 C   0  0
   -6.2193   -5.8633    0.0000 F   0  0
   -3.8777   -7.2076    0.0000 Cl  0  0
  1  2  1  0
  2  3  2  0
  2  4  1  0
  5  6  1  0
  7  8  1  0
  8  9  1  0
  9 10  1  0
 10 11  1  0
 11 12  1  0
  7 12  1  0
  6 10  1  0
  4  5  1  0
 13 14  1  0
 14 15  2  0
 15 16  1  0
 16 17  2  0
 17 18  1  0
 18 19  2  0
 19 20  1  0
 20 21  2  0
 21 22  1  0
 13 22  2  0
 17 22  1  0
 24 25  1  0
 25 26  2  0
 26 27  1  0
 27 28  2  0
 28 29  1  0
 24 29  2  0
 27 30  1  0
 26 31  1  0
 23 24  1  0
 16 23  1  0
  1 19  1  0
M  END
> <chembl_id>
CHEMBL3814694

$$$$

  SciTegic12131615502D

 40 45  0  0  0  0            999 V2000
    3.7345    1.5436    0.0000 C   0  0
    4.8300    2.8133    0.0000 C   0  0
    3.7345    0.0000    0.0000 C   0  0
    6.1246    2.2656    0.0000 C   0  0
    5.2034   -0.5726    0.0000 C   0  0
    6.1246    0.5726    0.0000 C   0  0
    2.5893   -0.5726    0.0000 C   0  0
    3.5602    0.5726    0.0000 C   0  0
    3.5602    2.2656    0.0000 C   0  0
    5.0291    0.0249    0.0000 C   0  0
   -0.5794    2.3239    0.0000 C   0  0
   -1.9600    2.9103    0.0000 C   0  0
   -3.1582    2.0079    0.0000 C   0  0
   -2.9757    0.5191    0.0000 C   0  0
   -1.5951   -0.0674    0.0000 C   0  0
   -0.3969    0.8350    0.0000 C   0  0
   -4.5407    2.5919    0.0000 N   0  0
   -8.1338   -0.1102    0.0000 N   0  0
   -6.7458   -0.7121    0.0000 C   0  0
   -5.5484    0.1869    0.0000 N   0  0
   -5.7383    1.6872    0.0000 C   0  0
   -7.1162    2.2750    0.0000 C   0  0
   -7.2958    3.7613    0.0000 C   0  0
   -8.6729    4.3485    0.0000 C   0  0
   -9.8703    3.4495    0.0000 C   0  0
   -9.6906    1.9633    0.0000 C   0  0
   -8.3135    1.3761    0.0000 C   0  0
   -8.8501    5.8389    0.0000 O   0  0
   -7.6486    6.7383    0.0000 C   0  0
   -7.8258    8.2286    0.0000 C   0  0
  -11.2520    4.0356    0.0000 O   0  0
  -12.4509    3.1328    0.0000 C   0  0
    0.9857    0.2510    0.0000 C   0  0
    2.1833    1.1556    0.0000 N   0  0
    1.1337   -0.9398    0.0000 O   0  0
   -6.6244    9.1280    0.0000 O   0  0
   -6.7660   10.3196    0.0000 C   0  0
  -13.8326    3.7188    0.0000 C   0  0
  -15.0315    2.8160    0.0000 O   0  0
  -16.1363    3.2846    0.0000 C   0  0
  1  2  1  0
  1  3  1  0
  2  4  1  0
  3  5  1  0
  4  6  1  0
  5  6  1  0
  7  8  1  0
  3  7  1  0
  2  9  1  0
  6 10  1  0
 10  8  1  0
  8  9  1  0
 11 12  1  0
 12 13  2  0
 13 14  1  0
 14 15  2  0
 15 16  1  0
 11 16  2  0
 18 19  1  0
 19 20  2  0
 20 21  1  0
 21 22  2  0
 22 23  1  0
 23 24  2  0
 24 25  1  0
 25 26  2  0
 26 27  1  0
 18 27  2  0
 22 27  1  0
 29 30  1  0
 28 29  1  0
 24 28  1  0
 31 32  1  0
 25 31  1  0
 17 21  1  0
 13 17  1  0
 16 33  1  0
 33 34  1  0
 33 35  2  0
 34  8  1  0
 30 36  1  0
 36 37  1  0
 32 38  1  0
 38 39  1  0
 39 40  1  0
M  END
> <chembl_id>
CHEMBL3765815

$$$$

  SciTegic09261414462D

 26 28  0  0  0  0            999 V2000
    8.4894  -10.9398    0.0000 N   0  0
    9.1991  -10.5304    0.0000 C   0  0
    9.1963   -9.7077    0.0000 N   0  0
    8.4876   -9.3025    0.0000 C   0  0
    7.7814  -10.5309    0.0000 C   0  0
    7.7826   -9.7143    0.0000 C   0  0
    7.0064   -9.4608    0.0000 C   0  0
    6.5254  -10.1207    0.0000 C   0  0
    7.0044  -10.7820    0.0000 S   0  0
    8.4839   -8.4853    0.0000 N   0  0
    9.1897   -8.0734    0.0000 C   0  0
    9.8971   -8.4836    0.0000 C   0  0
   10.6024   -8.0724    0.0000 C   0  0
   10.5991   -7.2543    0.0000 C   0  0
    9.8846   -6.8492    0.0000 C   0  0
    9.1822   -7.2627    0.0000 C   0  0
    5.7082  -10.1195    0.0000 N   0  0
    5.3007   -9.4112    0.0000 C   0  0
    4.4835   -9.4101    0.0000 C   0  0
    5.7103   -8.7041    0.0000 O   0  0
   11.3044   -6.8416    0.0000 F   0  0
   11.3118   -8.4781    0.0000 Cl  0  0
    4.0759   -8.7018    0.0000 C   0  0
    3.2587   -8.7006    0.0000 O   0  0
    4.4855   -7.9946    0.0000 O   0  0
    2.8512   -7.9923    0.0000 C   0  0
  5  1  1  0
  1  2  2  0
  2  3  1  0
  3  4  2  0
  4  6  1  0
  5  6  2  0
  6  7  1  0
  7  8  2  0
  8  9  1  0
  9  5  1  0
  4 10  1  0
 10 11  1  0
 11 12  2  0
 12 13  1  0
 13 14  2  0
 14 15  1  0
 15 16  2  0
 16 11  1  0
  8 17  1  0
 17 18  1  0
 18 19  1  0
 18 20  2  0
 14 21  1  0
 13 22  1  0
 19 23  1  0
 23 24  1  0
 23 25  2  0
 24 26  1  0
M  END
> <chembl_id>
CHEMBL3233759

$$$$

  SciTegic05221516342D

 28 31  0  0  0  0            999 V2000
   20.1471   -9.8112    0.0000 C   0  0
   20.9643   -9.8112    0.0000 C   0  0
   21.3729  -10.5203    0.0000 C   0  0
   20.9643  -11.2294    0.0000 C   0  0
   20.1471  -11.2294    0.0000 C   0  0
   19.7386  -10.5203    0.0000 N   0  0
   22.2554   -9.5391    0.0000 C   0  0
   22.1713  -10.3495    0.0000 N   0  0
   21.5081   -9.2047    0.0000 N   0  0
   19.7386  -11.9385    0.0000 N   0  0
   17.6956  -11.2294    0.0000 C   0  0
   18.5128  -11.2294    0.0000 N   0  0
   18.9214  -11.9385    0.0000 C   0  0
   18.5128  -12.6434    0.0000 C   0  0
   17.6956  -12.6434    0.0000 C   0  0
   17.2870  -11.9385    0.0000 N   0  0
   17.2870  -10.5203    0.0000 N   0  0
   16.4698  -10.5203    0.0000 C   0  0
   16.0612   -9.8112    0.0000 C   0  0
   16.4698   -9.1063    0.0000 C   0  0
   17.2870   -9.1063    0.0000 C   0  0
   17.6956   -9.8112    0.0000 C   0  0
   16.0612   -8.3972    0.0000 O   0  0
   15.2440   -8.3972    0.0000 C   0  0
   22.7778  -10.8974    0.0000 C   0  0
   23.5652  -10.6884    0.0000 C   0  0
   22.6070  -11.6958    0.0000 C   0  0
   22.9632   -9.1307    0.0000 O   0  0
  1  2  1  0
  2  3  2  0
  3  4  1  0
  4  5  2  0
  5  6  1  0
  1  6  2  0
  7  8  1  0
  7  9  1  0
  2  9  1  0
  3  8  1  0
  5 10  1  0
 11 12  1  0
 12 13  2  0
 13 14  1  0
 14 15  2  0
 15 16  1  0
 11 16  2  0
 17 18  1  0
 18 19  1  0
 19 20  1  0
 20 21  1  0
 21 22  1  0
 17 22  1  0
 23 24  1  0
 20 23  1  0
 11 17  1  0
 10 13  1  0
 25 26  1  0
 25 27  1  0
  8 25  1  0
  7 28  2  0
M  END
> <chembl_id>
CHEMBL3354193

$$$$

  SciTegic09081514162D

 46 50  0  0  0  0            999 V2000
    1.2990   -0.7500    0.0000 N   0  0
    1.2990    0.7500    0.0000 C   0  0
    0.0000    1.5000    0.0000 N   0  0
   -1.2990    0.7500    0.0000 C   0  0
   -1.2990   -0.7500    0.0000 C   0  0
    0.0000   -1.5000    0.0000 C   0  0
   -2.5973    1.5031    0.0000 O   0  0
    2.5972    1.5031    0.0000 N   0  0
    2.5951    3.0039    0.0000 C   0  0
   -3.8990    0.7562    0.0000 C   0  0
   -5.1976    1.5069    0.0000 C   0  0
   -6.4972    0.7578    0.0000 C   0  0
   -6.4981   -0.7422    0.0000 C   0  0
   -5.1996   -1.4931    0.0000 C   0  0
   -3.9001   -0.7439    0.0000 C   0  0
    3.8915    3.7585    0.0000 C   0  0
    3.8863    5.2585    0.0000 C   0  0
    2.5847    6.0040    0.0000 C   0  0
    1.2883    5.2495    0.0000 C   0  0
    1.2934    3.7495    0.0000 C   0  0
    2.5795    7.5047    0.0000 N   0  0
    3.8747    8.2614    0.0000 C   0  0
    3.8671    9.7614    0.0000 C   0  0
    2.5643   10.5048    0.0000 N   0  0
    1.2691    9.7483    0.0000 C   0  0
    1.2767    8.2483    0.0000 C   0  0
   -2.3383   -1.3500    0.0000 Cl  0  0
   -5.1975   -2.9939    0.0000 N   0  0
   -3.8972   -3.7433    0.0000 C   0  0
   -3.8950   -5.2441    0.0000 C   0  0
   -2.8586   -3.1422    0.0000 O   0  0
   -2.5947   -5.9935    0.0000 C   0  0
    2.5583   11.7048    0.0000 C   0  0
    5.1954    3.0153    0.0000 O   0  0
    6.2317    3.6204    0.0000 C   0  0
   -5.1940   -5.9960    0.0000 C   0  0
   -6.2326   -6.5971    0.0000 N   0  0
   -2.5926   -7.4944    0.0000 C   0  0
   -1.2941   -8.2453    0.0000 C   0  0
   -1.2950   -9.7453    0.0000 C   0  0
   -2.5945  -10.4944    0.0000 C   0  0
   -3.8931   -9.7436    0.0000 C   0  0
   -3.8921   -8.2436    0.0000 C   0  0
    0.0027  -10.4992    0.0000 N   0  3
    0.0003  -11.6992    0.0000 O   0  0
    1.0434   -9.9016    0.0000 O   0  5
  1  2  2  0
  2  3  1  0
  3  4  2  0
  4  5  1  0
  5  6  2  0
  6  1  1  0
  4  7  1  0
  2  8  1  0
  8  9  1  0
  7 10  1  0
 10 11  2  0
 11 12  1  0
 12 13  2  0
 13 14  1  0
 14 15  2  0
 15 10  1  0
  9 16  2  0
 16 17  1  0
 17 18  2  0
 18 19  1  0
 19 20  2  0
 20  9  1  0
 21 22  1  0
 22 23  1  0
 23 24  1  0
 24 25  1  0
 25 26  1  0
 26 21  1  0
 18 21  1  0
  5 27  1  0
 14 28  1  0
 28 29  1  0
 29 30  1  0
 29 31  2  0
 30 32  2  0
 24 33  1  0
 16 34  1  0
 34 35  1  0
 30 36  1  0
 36 37  3  0
 32 38  1  0
 38 39  2  0
 39 40  1  0
 40 41  2  0
 41 42  1  0
 42 43  2  0
 43 38  1  0
 44 45  2  0
 44 46  1  0
 40 44  1  0
M  CHG  2  44   1  46  -1
M  END
> <chembl_id>
CHEMBL3425658

$$$$

  SciTegic10311316262D

 57 62  0  0  0  0            999 V2000
   18.5032   -8.1275    0.0000 O   0  0
   18.0584   -7.4421    0.0000 S   0  0
   17.6872   -8.1699    0.0000 O   0  0
   16.6258   -8.3658    0.0000 O   0  0
   16.6487   -7.5489    0.0000 C   0  0
   17.3225   -7.0853    0.0000 C   0  0
   17.0921   -6.3014    0.0000 N   0  3
   16.2752   -6.2786    0.0000 O   0  0
   16.0011   -7.0484    0.0000 N   0  0
   18.7633   -7.0321    0.0000 C   0  0
   19.4694   -7.4418    0.0000 C   0  0
   20.1752   -7.0314    0.0000 C   0  0
   20.1727   -6.2133    0.0000 C   0  0
   19.4586   -5.8074    0.0000 C   0  0
   18.7557   -6.2201    0.0000 C   0  0
   22.2732  -12.4724    0.0000 C   0  0
   22.2721  -13.2920    0.0000 C   0  0
   22.9801  -13.7009    0.0000 C   0  0
   23.6898  -13.2915    0.0000 C   0  0
   23.6870  -12.4688    0.0000 C   0  0
   22.9783  -12.0636    0.0000 C   0  0
   21.5662  -12.0596    0.0000 N   0  0
   21.5679  -11.2415    0.0000 C   0  0
   20.8642  -10.8332    0.0000 C   0  0
   20.1542  -11.2385    0.0000 N   0  0
   20.1524  -12.0566    0.0000 C   0  0
   20.8607  -12.4695    0.0000 C   0  0
   19.4479  -10.8274    0.0000 C   0  0
   22.9799  -14.5181    0.0000 O   0  0
   22.2721  -14.9266    0.0000 C   0  0
   24.3981  -13.6990    0.0000 N   0  0
   25.1052  -13.2893    0.0000 C   0  0
   25.8102  -13.6972    0.0000 N   0  0
   26.5168  -13.2882    0.0000 C   0  0
   26.5160  -12.4701    0.0000 C   0  0
   25.8027  -12.0628    0.0000 C   0  0
   25.0990  -12.4742    0.0000 N   0  0
   27.2225  -12.0595    0.0000 Cl  0  0
   25.7985  -11.2456    0.0000 O   0  0
   26.5041  -10.8334    0.0000 C   0  0
   27.2144  -11.2408    0.0000 C   0  0
   27.9195  -10.8293    0.0000 C   0  0
   27.9158  -10.0112    0.0000 C   0  0
   27.2010   -9.6064    0.0000 C   0  0
   26.4988  -10.0203    0.0000 C   0  0
   28.6291  -11.2346    0.0000 N   0  0
   29.3349  -10.8227    0.0000 C   0  0
   30.0445  -11.2281    0.0000 C   0  0
   29.3312  -10.0055    0.0000 O   0  0
   30.7503  -10.8162    0.0000 C   0  0
   19.4508  -10.0102    0.0000 C   0  0
   18.7446   -9.5991    0.0000 N   0  0
   20.1600   -9.6041    0.0000 O   0  0
   18.0354  -10.0052    0.0000 C   0  0
   17.3291   -9.5941    0.0000 C   0  0
   17.3320   -8.7769    0.0000 C   0  0
   17.7966   -5.8854    0.0000 O   0  5
  2  1  2  0
  3  2  2  0
  4  5  1  0
  5  6  1  0
  6  7  2  0
  7  8  1  0
  8  9  1  0
  9  5  2  0
  6  2  1  0
  2 10  1  0
 10 11  2  0
 11 12  1  0
 12 13  2  0
 13 14  1  0
 14 15  2  0
 15 10  1  0
 16 17  2  0
 17 18  1  0
 18 19  2  0
 19 20  1  0
 20 21  2  0
 21 16  1  0
 22 23  1  0
 22 27  1  0
 23 24  1  0
 24 25  1  0
 25 26  1  0
 26 27  1  0
 16 22  1  0
 25 28  1  0
 18 29  1  0
 29 30  1  0
 19 31  1  0
 31 32  1  0
 32 33  2  0
 33 34  1  0
 34 35  2  0
 35 36  1  0
 36 37  2  0
 37 32  1  0
 35 38  1  0
 36 39  1  0
 39 40  1  0
 40 41  2  0
 41 42  1  0
 42 43  2  0
 43 44  1  0
 44 45  2  0
 45 40  1  0
 42 46  1  0
 46 47  1  0
 47 48  1  0
 47 49  2  0
 48 50  2  0
 28 51  1  0
 51 52  1  0
 51 53  2  0
 52 54  1  0
 54 55  1  0
 55 56  1  0
 56  4  1  0
  7 57  1  0
M  CHG  2   7   1  57  -1
M  END
> <chembl_id>
CHEMBL2381515

$$$$

  SciTegic12201611512D

 31 34  0  0  0  0            999 V2000
   -2.1332   -2.2973    0.0000 N   0  0
   -3.4277   -1.5498    0.0000 C   0  0
   -3.4277    0.0000    0.0000 N   0  0
   -2.1332    0.6928    0.0000 C   0  0
   -0.8205    0.0000    0.0000 C   0  0
    0.4558    0.6928    0.0000 C   0  0
    1.7503    0.0000    0.0000 C   0  0
    1.7503   -1.5498    0.0000 C   0  0
    0.4558   -2.2973    0.0000 C   0  0
   -0.8205   -1.5498    0.0000 C   0  0
    0.4558    2.1879    0.0000 O   0  0
    3.0631    0.6928    0.0000 O   0  0
    3.0631    2.1879    0.0000 C   0  0
    1.7503    2.9537    0.0000 C   0  0
   -2.1454    2.1947    0.0000 N   0  0
   -3.4508    2.9353    0.0000 C   0  0
   -3.4653    4.4352    0.0000 C   0  0
   -4.7714    5.1728    0.0000 C   0  0
   -6.0632    4.4104    0.0000 C   0  0
   -6.0489    2.9104    0.0000 C   0  0
   -4.7427    2.1729    0.0000 C   0  0
   -4.7827    6.6736    0.0000 N   0  3
   -3.7484    7.2820    0.0000 O   0  0
   -5.8266    7.2654    0.0000 O   0  5
   -7.1082    5.0004    0.0000 F   0  0
    3.0410   -2.3153    0.0000 O   0  0
    3.0239   -3.8160    0.0000 C   0  0
    1.9778   -4.4039    0.0000 C   0  0
    4.3146   -4.5820    0.0000 O   0  0
    4.2976   -6.0827    0.0000 C   0  0
    5.3296   -6.6951    0.0000 C   0  0
  1  2  1  0
  2  3  2  0
  3  4  1  0
  4  5  2  0
  5  6  1  0
  6  7  2  0
  7  8  1  0
  8  9  2  0
  9 10  1  0
  1 10  2  0
  5 10  1  0
 12 13  1  0
 13 14  1  0
 11 14  1  0
  6 11  1  0
  7 12  1  0
  4 15  1  0
 16 17  1  0
 17 18  2  0
 18 19  1  0
 19 20  2  0
 20 21  1  0
 16 21  2  0
 22 23  2  0
 22 24  1  0
 18 22  1  0
 19 25  1  0
 15 16  1  0
 27 28  1  0
 26 27  1  0
 30 31  1  0
 29 30  1  0
 27 29  1  0
  8 26  1  0
M  CHG  2  22   1  24  -1
M  END
> <chembl_id>
CHEMBL3806172

$$$$

  SciTegic01161211252D

 23 25  0  0  0  0            999 V2000
   15.0861    1.2542    0.0000 C   0  0
   15.0849    0.4268    0.0000 C   0  0
   15.7997    0.0140    0.0000 C   0  0
   15.7979    1.6670    0.0000 C   0  0
   16.5133    1.2578    0.0000 C   0  0
   16.5141    0.4310    0.0000 C   0  0
   17.2294    0.0200    0.0000 N   0  0
   17.9444    0.4348    0.0000 C   0  0
   17.9396    1.2648    0.0000 C   0  0
   17.2237    1.6720    0.0000 C   0  0
   17.2194    2.4970    0.0000 N   0  0
   17.9316    2.9133    0.0000 C   0  0
   18.6473    2.4991    0.0000 C   0  0
   19.3591    2.9147    0.0000 C   0  0
   19.3551    3.7405    0.0000 C   0  0
   18.6335    4.1509    0.0000 C   0  0
   17.9246    3.7311    0.0000 C   0  0
   20.0755    2.5056    0.0000 Br  0  0
   14.3715    1.6665    0.0000 N   0  0
   13.6571    1.2539    0.0000 C   0  0
   12.9426    1.6662    0.0000 C   0  0
   13.6573    0.4289    0.0000 O   0  0
   12.2282    1.2535    0.0000 C   0  0
 10 11  1  0
  2  3  1  0
 11 12  1  0
  5  6  1  0
 12 13  2  0
  3  6  2  0
 13 14  1  0
  6  7  1  0
 14 15  2  0
  1  2  2  0
 15 16  1  0
  7  8  2  0
 16 17  2  0
 17 12  1  0
  5  4  2  0
 14 18  1  0
  8  9  1  0
  1 19  1  0
  4  1  1  0
 19 20  1  0
  9 10  2  0
 20 21  1  0
 10  5  1  0
 20 22  2  0
 21 23  2  0
M  END
> <chembl_id>
CHEMBL1090840

$$$$

  SciTegic12131613492D

 27 31  0  0  0  0            999 V2000
   -5.5359   -7.2354    0.0000 Cl  0  0
    0.8955    2.0810    0.0000 C   0  0
    1.7138    1.2033    0.0000 C   0  0
    2.8908    1.4370    0.0000 C   0  0
   -1.0028    1.5132    0.0000 N   0  0
   -2.3155    0.7475    0.0000 C   0  0
   -2.3155   -0.7475    0.0000 N   0  0
   -1.0028   -1.5132    0.0000 C   0  0
    0.2917    0.7475    0.0000 C   0  0
    0.2917   -0.7475    0.0000 C   0  0
    1.7138   -1.2033    0.0000 C   0  0
    2.5889    0.0182    0.0000 O   0  0
   -3.6168    1.4950    0.0000 C   0  0
   -4.9669    0.8708    0.0000 C   0  0
   -5.9732    1.9832    0.0000 N   0  0
   -5.2262    3.2840    0.0000 N   0  0
   -3.7582    2.9755    0.0000 C   0  0
   -0.9971   -3.0138    0.0000 N   0  0
   -2.2935   -3.7700    0.0000 C   0  0
   -4.6304   -4.2656    0.0000 N   0  0
   -3.6203   -3.1531    0.0000 N   0  0
   -3.8857   -5.5600    0.0000 C   0  0
   -2.4241   -5.2456    0.0000 C   0  0
   -1.4032   -6.3500    0.0000 C   0  0
   -1.8757   -7.7944    0.0000 C   0  0
   -3.3373   -8.1089    0.0000 C   0  0
   -4.3620   -6.9866    0.0000 C   0  0
  3  2  1  0
  4  3  1  0
  9  5  1  0
  5  6  2  0
  6  7  1  0
  7  8  2  0
  8 10  1  0
  9 10  2  0
 10 11  1  0
 11 12  1  0
 12  3  1  0
  3  9  1  0
  6 13  1  0
 13 14  2  0
 14 15  1  0
 15 16  1  0
 16 17  2  0
 17 13  1  0
  8 18  1  0
 18 19  1  0
 19 23  1  0
 22 20  1  0
 20 21  1  0
 21 19  2  0
 22 23  2  0
 23 24  1  0
 24 25  2  0
 25 26  1  0
 26 27  2  0
 27 22  1  0
 27  1  1  0
M  END
> <chembl_id>
CHEMBL3758602

$$$$

  SciTegic12201615542D

 39 44  0  0  0  0            999 V2000
    1.4499    7.7742    0.0000 C   0  0
    0.5265    8.9573    0.0000 C   0  0
    0.9759   10.0700    0.0000 C   0  0
    2.6383    7.9411    0.0000 O   0  0
    0.8879    6.3826    0.0000 N   0  0
    1.8114    5.1995    0.0000 C   0  0
    1.2517    3.8078    0.0000 C   0  0
    2.1749    2.6315    0.0000 C   0  0
    3.6621    2.8384    0.0000 C   0  0
    4.2218    4.2301    0.0000 C   0  0
    3.2965    5.4106    0.0000 C   0  0
   -1.0028   -1.5132    0.0000 C   0  0
    0.2917   -0.7475    0.0000 C   0  0
    0.2917    0.7475    0.0000 C   0  0
   -1.0028    1.5132    0.0000 C   0  0
   -2.3155    0.7475    0.0000 N   0  0
   -2.3155   -0.7475    0.0000 C   0  0
    2.5889    0.0182    0.0000 C   0  0
    1.7138   -1.2033    0.0000 N   0  0
    1.7138    1.2033    0.0000 N   0  0
    4.0896    0.0290    0.0000 C   0  0
    4.9234    1.2700    0.0000 C   0  0
    4.7453   -1.3220    0.0000 N   0  0
    6.4199    1.1671    0.0000 N   0  0
    7.0791   -0.1803    0.0000 C   0  0
    6.2418   -1.4248    0.0000 C   0  0
    7.2286   -5.1568    0.0000 N   0  0
    8.5770   -4.4998    0.0000 N   0  0
    8.3688   -3.0143    0.0000 C   0  0
    6.9013   -2.7729    0.0000 C   0  0
    6.1870   -4.0774    0.0000 C   0  0
    6.2216   -9.5371    0.0000 N   0  0
    7.6659   -9.1322    0.0000 C   0  0
    8.0374   -7.6789    0.0000 C   0  0
    6.9674   -6.6347    0.0000 C   0  0
    5.5202   -7.0355    0.0000 C   0  0
    5.1488   -8.4888    0.0000 C   0  0
    5.9245  -10.6998    0.0000 C   0  0
    4.3957    2.3477    0.0000 N   0  0
  1  2  1  0
  2  3  2  0
  1  4  2  0
  1  5  1  0
  6  7  1  0
  7  8  2  0
  8  9  1  0
  9 10  2  0
 10 11  1  0
  6 11  2  0
 12 13  1  0
 13 14  2  0
 14 15  1  0
 15 16  2  0
 16 17  1  0
 12 17  2  0
 18 19  2  0
 18 20  1  0
 13 19  1  0
 14 20  1  0
 21 22  1  0
 21 23  2  0
 22 24  2  0
 24 25  1  0
 25 26  2  0
 23 26  1  0
 27 28  1  0
 28 29  2  0
 29 30  1  0
 30 31  2  0
 27 31  1  0
 32 33  1  0
 33 34  1  0
 34 35  1  0
 35 36  1  0
 36 37  1  0
 32 37  1  0
 32 38  1  0
 27 35  1  0
 26 30  1  0
 22 39  1  0
 18 21  1  0
  8 20  1  0
  5  6  1  0
M  END
> <chembl_id>
CHEMBL3814620

$$$$

  SciTegic05221516342D

 27 30  0  0  0  0            999 V2000
   30.1103  -10.3395    0.0000 C   0  0
   30.9275  -10.3395    0.0000 C   0  0
   31.3361  -11.0486    0.0000 C   0  0
   30.9275  -11.7577    0.0000 C   0  0
   30.1103  -11.7577    0.0000 C   0  0
   29.7017  -11.0486    0.0000 N   0  0
   32.2185  -10.0674    0.0000 C   0  0
   32.1345  -10.8778    0.0000 N   0  0
   31.4712   -9.7330    0.0000 C   0  0
   29.7017  -12.4668    0.0000 N   0  0
   27.6587  -11.7577    0.0000 C   0  0
   28.4759  -11.7577    0.0000 N   0  0
   28.8845  -12.4668    0.0000 C   0  0
   28.4759  -13.1717    0.0000 C   0  0
   27.6587  -13.1717    0.0000 C   0  0
   27.2501  -12.4668    0.0000 N   0  0
   27.2501  -11.0486    0.0000 N   0  0
   26.4329  -11.0486    0.0000 C   0  0
   26.0243  -10.3395    0.0000 C   0  0
   26.4329   -9.6345    0.0000 C   0  0
   27.2501   -9.6345    0.0000 C   0  0
   27.6587  -10.3395    0.0000 C   0  0
   26.0243   -8.9254    0.0000 O   0  0
   25.2071   -8.9254    0.0000 C   0  0
   32.7409  -11.4257    0.0000 C   0  0
   33.5283  -11.2167    0.0000 C   0  0
   32.5702  -12.2241    0.0000 C   0  0
  1  2  1  0
  2  3  2  0
  3  4  1  0
  4  5  2  0
  5  6  1  0
  1  6  2  0
  7  8  1  0
  7  9  1  0
  2  9  1  0
  3  8  1  0
  5 10  1  0
 11 12  1  0
 12 13  2  0
 13 14  1  0
 14 15  2  0
 15 16  1  0
 11 16  2  0
 17 18  1  0
 18 19  1  0
 19 20  1  0
 20 21  1  0
 21 22  1  0
 17 22  1  0
 23 24  1  0
 20 23  1  0
 11 17  1  0
 10 13  1  0
 25 26  1  0
 25 27  1  0
  8 25  1  0
M  END
> <chembl_id>
CHEMBL3354194

$$$$

  SciTegic05221516342D

 38 42  0  0  0  0            999 V2000
   12.2565  -23.0753    0.0000 C   0  0
   12.2553  -23.8948    0.0000 C   0  0
   12.9634  -24.3038    0.0000 N   0  0
   13.6730  -23.8944    0.0000 C   0  0
   13.6702  -23.0717    0.0000 N   0  0
   12.9616  -22.6664    0.0000 C   0  0
   12.9596  -21.8493    0.0000 C   0  0
   13.6193  -21.3670    0.0000 C   0  0
   13.3645  -20.5906    0.0000 N   0  0
   12.2971  -21.3710    0.0000 C   0  0
   12.5440  -20.5898    0.0000 N   0  0
   11.9939  -19.9888    0.0000 C   0  0
   11.1941  -20.1633    0.0000 C   0  0
   10.9473  -20.9444    0.0000 C   0  0
   11.5003  -21.5511    0.0000 C   0  0
   11.5486  -22.6669    0.0000 Cl  0  0
   14.3814  -24.3018    0.0000 N   0  0
   15.0884  -23.8921    0.0000 C   0  0
   15.7934  -24.3001    0.0000 C   0  0
   16.5000  -23.8910    0.0000 C   0  0
   16.4992  -23.0730    0.0000 C   0  0
   15.7859  -22.6657    0.0000 C   0  0
   15.0822  -23.0770    0.0000 C   0  0
   15.7935  -25.1172    0.0000 O   0  0
   15.0859  -25.5259    0.0000 C   0  0
   15.7817  -21.8485    0.0000 N   0  0
   15.0719  -21.4435    0.0000 C   0  0
   15.0678  -20.6263    0.0000 C   0  0
   14.3663  -21.8557    0.0000 O   0  0
   15.7734  -20.2141    0.0000 C   0  0
   17.2057  -22.6623    0.0000 N   0  0
   17.9514  -22.9871    0.0000 C   0  0
   18.4965  -22.3783    0.0000 C   0  0
   18.0858  -21.6717    0.0000 C   0  0  2  0  0  0
   17.2870  -21.8440    0.0000 C   0  0
   18.4160  -20.9242    0.0000 N   0  0
   19.2284  -20.8363    0.0000 C   0  0
   17.9337  -20.2645    0.0000 C   0  0
  1  2  2  0
  2  3  1  0
  3  4  2  0
  4  5  1  0
  5  6  2  0
  6  1  1  0
  7  8  1  0
  8  9  2  0
  9 11  1  0
 10  7  2  0
  6  7  1  0
 10 11  1  0
 10 15  1  0
 11 12  1  0
 12 13  2  0
 13 14  1  0
 14 15  2  0
  1 16  1  0
  4 17  1  0
 17 18  1  0
 18 19  2  0
 19 20  1  0
 20 21  2  0
 21 22  1  0
 22 23  2  0
 23 18  1  0
 19 24  1  0
 24 25  1  0
 22 26  1  0
 26 27  1  0
 27 28  1  0
 27 29  2  0
 28 30  2  0
 21 31  1  0
 31 32  1  0
 32 33  1  0
 33 34  1  0
 34 35  1  0
 35 31  1  0
 34 36  1  6
 36 37  1  0
 36 38  1  0
M  END
> <chembl_id>
CHEMBL3353403

$$$$

  SciTegic11131809512D

 43 46  0  0  0  0            999 V2000
    3.6387   -0.8963    0.0000 C   0  0
    2.6003   -1.4977    0.0000 O   0  0
    1.2990   -0.7500    0.0000 C   0  0
    1.2990    0.7500    0.0000 C   0  0
    0.0000    1.5000    0.0000 C   0  0
   -0.0031    3.0008    0.0000 N   0  0
   -1.3039    3.7494    0.0000 C   0  0
   -1.6524    5.1712    0.0000 C   0  0
   -3.0999    4.7779    0.0000 N   0  0
   -2.7066    3.3304    0.0000 C   0  0
   -4.3986    5.5180    0.0000 C   0  0
   -4.4049    6.7180    0.0000 O   0  0
   -5.6946    4.7611    0.0000 O   0  0
   -6.9985    5.5042    0.0000 C   0  0
   -8.0347    4.8991    0.0000 C   0  0
   -8.0408    6.0989    0.0000 C   0  0
   -7.0049    6.7042    0.0000 C   0  0
   -1.2990    0.7500    0.0000 C   0  0
   -1.2990   -0.7500    0.0000 C   0  0
    0.0000   -1.5000    0.0000 C   0  0
   -0.0031   -3.0008    0.0000 N   0  0
   -1.3039   -3.7494    0.0000 C   0  0
   -1.3092   -5.2494    0.0000 N   0  0
   -2.6108   -5.9949    0.0000 C   0  0
   -3.9072   -5.2404    0.0000 C   0  0
   -3.9020   -3.7404    0.0000 C   0  0
   -5.1977   -2.9829    0.0000 N   0  0
   -5.1903   -1.4821    0.0000 C   0  0
   -6.4841   -0.7230    0.0000 C   0  0
   -6.4738    0.7769    0.0000 C   0  0
   -5.1696    1.5179    0.0000 C   0  0
   -3.8758    0.7590    0.0000 C   0  0
   -2.5693    1.4977    0.0000 N   0  0
   -1.2759    0.7365    0.0000 C   0  0
   -1.2862   -0.4635    0.0000 O   0  0
    0.0306    1.4752    0.0000 C   0  0
    1.0648    0.8666    0.0000 C   0  0
   -3.8861   -0.7410    0.0000 C   0  0
   -2.6004   -2.9949    0.0000 N   0  0
   -5.2096   -5.9864    0.0000 C   0  0
   -5.2145   -7.1863    0.0000 F   0  0
   -6.2465   -5.3824    0.0000 F   0  0
   -6.2512   -6.5823    0.0000 F   0  0
  1  2  1  0
  2  3  1  0
  3  4  2  0
  4  5  1  0
  5  6  1  0
  6  7  1  0
  7  8  1  0
  8  9  1  0
  9 10  1  0
 10  7  1  0
  9 11  1  0
 11 12  2  0
 11 13  1  0
 13 14  1  0
 14 15  1  0
 14 16  1  0
 14 17  1  0
  5 18  2  0
 18 19  1  0
 19 20  2  0
 20  3  1  0
 20 21  1  0
 21 22  1  0
 22 23  2  0
 23 24  1  0
 24 25  2  0
 25 26  1  0
 26 27  1  0
 27 28  1  0
 28 29  2  0
 29 30  1  0
 30 31  2  0
 31 32  1  0
 32 33  1  0
 33 34  1  0
 34 35  2  0
 34 36  1  0
 36 37  2  0
 32 38  2  0
 38 28  1  0
 26 39  2  0
 39 22  1  0
 25 40  1  0
 40 41  1  0
 40 42  1  0
 40 43  1  0
M  END
> <chembl_id>
CHEMBL3967836

$$$$

  SciTegic12171313022D

 36 40  0  0  0  0            999 V2000
    2.7226  -13.3309    0.0000 C   0  0
    2.7214  -14.1504    0.0000 C   0  0
    3.4295  -14.5594    0.0000 N   0  0
    4.1391  -14.1500    0.0000 C   0  0
    4.1363  -13.3273    0.0000 N   0  0
    3.4277  -12.9220    0.0000 C   0  0
    4.8475  -14.5575    0.0000 N   0  0
    5.5545  -14.1478    0.0000 C   0  0
    6.2596  -14.5557    0.0000 C   0  0
    6.9661  -14.1466    0.0000 C   0  0
    6.9653  -13.3286    0.0000 C   0  0
    6.2520  -12.9213    0.0000 C   0  0
    5.5483  -13.3326    0.0000 C   0  0
    6.2478  -12.1041    0.0000 N   0  0
    6.2596  -15.3729    0.0000 O   0  0
    5.5520  -15.7815    0.0000 C   0  0
    5.5380  -11.6991    0.0000 C   0  0
    5.5339  -10.8819    0.0000 C   0  0
    4.8324  -12.1113    0.0000 O   0  0
    6.2395  -10.4697    0.0000 C   0  0
    7.6718  -12.9179    0.0000 N   0  0
    8.3750  -13.3278    0.0000 C   0  0
    9.0795  -12.9206    0.0000 C   0  0
    9.0813  -12.1031    0.0000 N   0  0
    8.3726  -11.6944    0.0000 C   0  0
    7.6620  -12.1032    0.0000 C   0  0
    9.7894  -11.6951    0.0000 C   0  0
    3.4194  -12.1040    0.0000 C   0  0
    4.0791  -11.6216    0.0000 C   0  0
    3.8242  -10.8452    0.0000 N   0  0
    2.7569  -11.6256    0.0000 C   0  0
    3.0068  -10.8508    0.0000 N   0  0
    2.4612  -10.2490    0.0000 C   0  0
    1.6657  -10.4209    0.0000 C   0  0
    1.4186  -11.1998    0.0000 C   0  0
    1.9658  -11.7982    0.0000 C   0  0
  1  2  2  0
  2  3  1  0
  3  4  2  0
  4  5  1  0
  5  6  2  0
  6  1  1  0
  4  7  1  0
  7  8  1  0
  8  9  2  0
  9 10  1  0
 10 11  2  0
 11 12  1  0
 12 13  2  0
 13  8  1  0
 12 14  1  0
  9 15  1  0
 15 16  1  0
 14 17  1  0
 17 18  1  0
 17 19  2  0
 18 20  2  0
 11 21  1  0
 21 22  1  0
 21 26  1  0
 22 23  1  0
 23 24  1  0
 24 25  1  0
 25 26  1  0
 24 27  1  0
 28 29  1  0
 29 30  2  0
 30 32  1  0
 31 28  2  0
  6 28  1  0
 31 32  1  0
 32 33  1  0
 33 34  2  0
 34 35  1  0
 35 36  2  0
 36 31  1  0
M  END
> <chembl_id>
CHEMBL2424676

$$$$

  SciTegic12191611242D

 29 32  0  0  0  0            999 V2000
   -8.4598    0.3211    0.0000 C   0  0
   -7.2652    0.2078    0.0000 N   0  0
   -6.5020   -1.0835    0.0000 N   0  0
   -5.0380   -0.7567    0.0000 C   0  0
   -6.2729    1.3327    0.0000 C   0  0
   -4.9153    0.7255    0.0000 C   0  0
   -3.6217    1.4865    0.0000 N   0  0
   -2.3155    0.7475    0.0000 C   0  0
   -1.0028    1.5132    0.0000 N   0  0
    0.2917    0.7475    0.0000 C   0  0
    0.2917   -0.7475    0.0000 C   0  0
    1.7138   -1.2033    0.0000 C   0  0
    2.0907   -2.3426    0.0000 Cl  0  0
    2.5889    0.0182    0.0000 C   0  0
    1.7138    1.2033    0.0000 N   0  0
   -1.0028   -1.5132    0.0000 C   0  0
   -0.9971   -3.0138    0.0000 O   0  0
   -2.2935   -3.7700    0.0000 C   0  0
   -2.2878   -5.2708    0.0000 C   0  0  1  0  0  0
   -1.0692   -6.1235    0.0000 C   0  0
   -1.5244   -7.5527    0.0000 N   0  0
   -0.6391   -8.7615    0.0000 C   0  0
   -1.2435  -10.1353    0.0000 C   0  0
   -0.5345  -11.1034    0.0000 C   0  0
    0.5538   -8.6312    0.0000 O   0  0
   -3.0244   -7.5615    0.0000 C   0  0
   -3.4962   -6.1377    0.0000 C   0  0  2  0  0  0
   -4.6375   -5.7668    0.0000 F   0  0
   -2.3155   -0.7475    0.0000 N   0  0
  1  2  1  0
  2  3  1  0
  3  4  2  0
  2  5  1  0
  5  6  2  0
  4  6  1  0
  6  7  1  0
  7  8  1  0
  8  9  2  0
  9 10  1  0
 10 11  2  0
 11 12  1  0
 12 13  1  0
 12 14  2  0
 14 15  1  0
 10 15  1  0
 11 16  1  0
 16 17  1  0
 17 18  1  0
 19 18  1  1
 19 20  1  0
 20 21  1  0
 21 22  1  0
 22 23  1  0
 23 24  2  0
 22 25  2  0
 21 26  1  0
 26 27  1  0
 19 27  1  0
 27 28  1  6
 16 29  2  0
  8 29  1  0
M  END
> <chembl_id>
CHEMBL3787220

$$$$

  SciTegic12201611502D

 30 33  0  0  0  0            999 V2000
   -2.1332   -2.2973    0.0000 N   0  0
   -3.4277   -1.5498    0.0000 C   0  0
   -3.4277    0.0000    0.0000 N   0  0
   -2.1332    0.6928    0.0000 C   0  0
   -0.8205    0.0000    0.0000 C   0  0
    0.4558    0.6928    0.0000 C   0  0
    1.7503    0.0000    0.0000 C   0  0
    1.7503   -1.5498    0.0000 C   0  0
    0.4558   -2.2973    0.0000 C   0  0
   -0.8205   -1.5498    0.0000 C   0  0
    0.4558    2.1879    0.0000 O   0  0
    3.0631    0.6928    0.0000 O   0  0
    3.0631    2.1879    0.0000 C   0  0
    1.7503    2.9537    0.0000 C   0  0
   -2.1454    2.1947    0.0000 N   0  0
   -3.4508    2.9353    0.0000 C   0  0
   -3.4653    4.4352    0.0000 C   0  0
   -4.7714    5.1728    0.0000 C   0  0
   -6.0632    4.4104    0.0000 C   0  0
   -6.0489    2.9104    0.0000 C   0  0
   -4.7427    2.1729    0.0000 C   0  0
   -4.7827    6.6736    0.0000 N   0  3
   -3.7484    7.2820    0.0000 O   0  0
   -5.8266    7.2654    0.0000 O   0  5
   -7.1082    5.0004    0.0000 C   0  0
    3.0410   -2.3153    0.0000 O   0  0
    3.0239   -3.8160    0.0000 C   0  0
    4.3146   -4.5820    0.0000 C   0  0
    4.2976   -6.0827    0.0000 O   0  0
    5.3296   -6.6951    0.0000 C   0  0
  1  2  1  0
  2  3  2  0
  3  4  1  0
  4  5  2  0
  5  6  1  0
  6  7  2  0
  7  8  1  0
  8  9  2  0
  9 10  1  0
  1 10  2  0
  5 10  1  0
 12 13  1  0
 13 14  1  0
 11 14  1  0
  6 11  1  0
  7 12  1  0
  4 15  1  0
 16 17  1  0
 17 18  2  0
 18 19  1  0
 19 20  2  0
 20 21  1  0
 16 21  2  0
 22 23  2  0
 22 24  1  0
 18 22  1  0
 19 25  1  0
 15 16  1  0
 27 28  1  0
 26 27  1  0
 29 30  1  0
 28 29  1  0
  8 26  1  0
M  CHG  2  22   1  24  -1
M  END
> <chembl_id>
CHEMBL3805299

$$$$

  SciTegic02271217242D

 35 38  0  0  0  0            999 V2000
   12.4872  -27.2610    0.0000 N   0  0
   13.2037  -26.8477    0.0000 C   0  0
   13.2008  -26.0172    0.0000 N   0  0
   12.4854  -25.6080    0.0000 C   0  0
   11.7724  -26.8482    0.0000 C   0  0
   11.7737  -26.0193    0.0000 C   0  0
   10.9857  -25.7619    0.0000 N   0  0
   10.4974  -26.4318    0.0000 C   0  0
   10.9837  -27.1031    0.0000 C   0  0
   12.4836  -24.7830    0.0000 N   0  0
   13.1972  -24.3690    0.0000 C   0  0
   13.9094  -24.7829    0.0000 C   0  0
   14.6225  -24.3695    0.0000 C   0  0
   14.6212  -23.5436    0.0000 C   0  0
   13.9008  -23.1328    0.0000 C   0  0
   13.1906  -23.5486    0.0000 C   0  0
   15.3377  -24.7807    0.0000 Cl  0  0
   15.3342  -23.1286    0.0000 O   0  0
   10.7319  -24.9769    0.0000 C   0  0
   16.0501  -23.5386    0.0000 C   0  0
   16.0501  -24.3636    0.0000 C   0  0
   16.7652  -24.7735    0.0000 C   0  0
   17.4792  -24.3584    0.0000 C   0  0
   17.4736  -23.5292    0.0000 C   0  0
   16.7580  -23.1230    0.0000 C   0  0
   18.1852  -23.1116    0.0000 C   0  0
   18.9025  -23.5191    0.0000 F   0  0
   18.1794  -22.2866    0.0000 F   0  0
   18.8958  -22.6917    0.0000 F   0  0
    9.9252  -24.8041    0.0000 C   0  0
    9.6715  -24.0191    0.0000 N   0  0
    8.8648  -23.8463    0.0000 C   0  0
    8.6111  -23.0613    0.0000 C   0  0
    8.3118  -24.4586    0.0000 O   0  0
    7.8043  -22.8886    0.0000 O   0  0
  6  7  1  0
 13 17  1  0
  7  8  1  0
 14 18  1  0
  8  9  2  0
  7 19  1  0
  9  5  1  0
 18 20  1  0
  4  6  1  0
 20 21  2  0
  4 10  1  0
 21 22  1  0
  5  6  2  0
 22 23  2  0
 10 11  1  0
 23 24  1  0
  1  2  2  0
 24 25  2  0
 25 20  1  0
 11 12  2  0
 24 26  1  0
  5  1  1  0
 26 27  1  0
 12 13  1  0
 26 28  1  0
  2  3  1  0
 26 29  1  0
 13 14  2  0
 19 30  1  0
 30 31  1  0
 14 15  1  0
 31 32  1  0
  3  4  2  0
 32 33  1  0
 15 16  2  0
 32 34  2  0
 16 11  1  0
 33 35  1  0
M  END
> <chembl_id>
CHEMBL1923019

$$$$

  SciTegic04091414152D

 41 46  0  0  0  0            999 V2000
    4.6611  -21.6247    0.0000 N   0  0
    4.6598  -22.4520    0.0000 C   0  0
    5.3747  -22.8649    0.0000 N   0  0
    5.3729  -21.2119    0.0000 C   0  0
    6.0882  -21.6211    0.0000 C   0  0
    6.0890  -22.4479    0.0000 C   0  0
    6.8043  -22.8589    0.0000 N   0  0
    7.5193  -22.4440    0.0000 C   0  0
    7.5145  -21.6141    0.0000 N   0  0
    6.7987  -21.2068    0.0000 C   0  0
    3.9451  -22.8640    0.0000 N   0  0
    8.2353  -22.8538    0.0000 O   0  0
    8.2265  -21.1973    0.0000 C   0  0
    3.9444  -23.6889    0.0000 C   0  0
    3.2295  -24.0993    0.0000 C   0  0
    3.2285  -24.9236    0.0000 C   0  0
    3.9432  -25.3374    0.0000 C   0  0
    4.6603  -24.9210    0.0000 C   0  0
    4.6578  -24.0982    0.0000 C   0  0
    3.9436  -26.1624    0.0000 N   0  0
    3.2290  -26.5760    0.0000 C   0  0
    3.2274  -27.3974    0.0000 C   0  0
    3.9403  -27.8133    0.0000 N   0  0
    4.6564  -27.4017    0.0000 C   0  0
    4.6595  -26.5741    0.0000 C   0  0
    3.9376  -28.6383    0.0000 C   0  0
    6.8060  -23.6838    0.0000 C   0  0  1  0  0  0
    6.1419  -24.1695    0.0000 C   0  0
    6.3984  -24.9537    0.0000 C   0  0
    7.2235  -24.9519    0.0000 N   0  0
    7.4767  -24.1667    0.0000 C   0  0
    7.6307  -25.6695    0.0000 C   0  0
    7.2133  -26.3810    0.0000 C   0  0
    8.4557  -25.6752    0.0000 O   0  0
    7.6208  -27.0984    0.0000 C   0  0
    8.9408  -21.6081    0.0000 C   0  0
    9.6506  -21.1948    0.0000 C   0  0
    9.6498  -20.3695    0.0000 C   0  0
    8.9330  -19.9591    0.0000 C   0  0
    8.2170  -20.3742    0.0000 C   0  0
    2.5136  -25.3351    0.0000 Cl  0  0
  1  2  2  0
  2  3  1  0
  3  6  2  0
  5  4  2  0
  4  1  1  0
  5  6  1  0
  6  7  1  0
  7  8  1  0
  8  9  1  0
  9 10  1  0
 10  5  1  0
  2 11  1  0
  8 12  2  0
  9 13  1  0
 11 14  1  0
 14 15  2  0
 15 16  1  0
 16 17  2  0
 17 18  1  0
 18 19  2  0
 19 14  1  0
 17 20  1  0
 20 21  1  0
 20 25  1  0
 21 22  1  0
 22 23  1  0
 23 24  1  0
 24 25  1  0
 23 26  1  0
 27  7  1  6
 27 28  1  0
 28 29  1  0
 29 30  1  0
 30 31  1  0
 31 27  1  0
 30 32  1  0
 32 33  1  0
 32 34  2  0
 33 35  2  0
 13 36  2  0
 13 40  1  0
 36 37  1  0
 37 38  2  0
 38 39  1  0
 39 40  2  0
 16 41  1  0
M  END
> <chembl_id>
CHEMBL3086104

$$$$

  SciTegic12171313052D

 34 38  0  0  0  0            999 V2000
    7.5525  -17.8036    0.0000 C   0  0
    7.5513  -18.6309    0.0000 C   0  0
    8.2661  -19.0438    0.0000 C   0  0
    8.9826  -18.6305    0.0000 C   0  0
    8.9797  -17.7999    0.0000 C   0  0
    8.2644  -17.3908    0.0000 C   0  0
    8.2619  -16.5659    0.0000 N   0  0
    8.9751  -16.1513    0.0000 C   0  0
    9.6922  -16.5661    0.0000 N   0  0
    9.6823  -14.9161    0.0000 C   0  0
    8.9725  -15.3324    0.0000 N   0  0
   10.4030  -15.3263    0.0000 C   0  0
   10.4038  -16.1538    0.0000 C   0  0
   11.1169  -16.5646    0.0000 N   0  0
   11.8338  -16.1525    0.0000 C   0  0
   11.8329  -15.3249    0.0000 C   0  0
   11.1153  -14.9096    0.0000 N   0  0
   11.1180  -17.3868    0.0000 C   0  0
   10.4017  -17.7984    0.0000 C   0  0
   10.4010  -18.6227    0.0000 C   0  0
   11.1159  -19.0363    0.0000 C   0  0
   11.8328  -18.6197    0.0000 C   0  0
   11.8300  -17.7968    0.0000 C   0  0
   12.5480  -16.5653    0.0000 O   0  0
   12.5486  -19.0300    0.0000 N   0  0
   12.5511  -19.8549    0.0000 C   0  0
   13.2669  -20.2652    0.0000 O   0  0
   11.8380  -20.2696    0.0000 C   0  0
   11.1222  -19.8594    0.0000 C   0  0
    8.2665  -19.8638    0.0000 N   0  0
    7.6047  -20.3477    0.0000 C   0  0
    7.8583  -21.1274    0.0000 C   0  0
    8.6784  -21.1270    0.0000 C   0  0
    8.9314  -20.3471    0.0000 C   0  0
  1  2  2  0
  2  3  1  0
  3  4  2  0
  4  5  1  0
  5  6  2  0
  6  1  1  0
  6  7  1  0
  7  8  1  0
  8  9  2  0
  9 13  1  0
 12 10  1  0
 10 11  2  0
 11  8  1  0
 12 13  2  0
 12 17  1  0
 13 14  1  0
 14 15  1  0
 15 16  1  0
 16 17  2  0
 18 19  2  0
 19 20  1  0
 20 21  2  0
 21 22  1  0
 22 23  2  0
 23 18  1  0
 14 18  1  0
 15 24  2  0
 22 25  1  0
 25 26  1  0
 26 27  2  0
 26 28  1  0
 28 29  2  0
  3 30  1  0
 30 31  1  0
 31 32  1  0
 32 33  1  0
 33 34  1  0
 34 30  1  0
M  END
> <chembl_id>
CHEMBL2437464

$$$$

  SciTegic12091611192D

 24 27  0  0  0  0            999 V2000
   -3.6217    1.4865    0.0000 N   0  0
   -7.5133    0.6990    0.0000 C   0  0
   -6.2219    1.4621    0.0000 N   0  0
   -4.9153    0.7255    0.0000 C   0  0
   -4.9001   -0.7745    0.0000 C   0  0
   -6.1914   -1.5377    0.0000 C   0  0
   -7.4980   -0.8010    0.0000 N   0  0
   -8.8205    1.4361    0.0000 N   0  0
   -8.8383    2.9360    0.0000 C   0  0
  -10.1461    3.6707    0.0000 C   0  0
  -11.4362    2.9055    0.0000 C   0  0
  -11.4185    1.4056    0.0000 C   0  0
  -10.1108    0.6709    0.0000 C   0  0
  -12.7462    3.6378    0.0000 O   0  0
  -13.7774    3.0242    0.0000 C   0  0
   -1.0028   -1.5132    0.0000 C   0  0
    0.2917   -0.7475    0.0000 C   0  0
    0.2917    0.7475    0.0000 C   0  0
   -1.0028    1.5132    0.0000 C   0  0
   -2.3155    0.7475    0.0000 C   0  0
   -2.3155   -0.7475    0.0000 N   0  0
    2.5889    0.0182    0.0000 C   0  0
    1.7138   -1.2033    0.0000 N   0  0
    1.7138    1.2033    0.0000 N   0  0
  2  3  1  0
  3  4  2  0
  4  5  1  0
  5  6  2  0
  6  7  1  0
  2  7  2  0
  8  9  1  0
  9 10  1  0
 10 11  1  0
 11 12  1  0
 12 13  1  0
  8 13  1  0
 14 15  1  0
 11 14  1  0
  2  8  1  0
  1  4  1  0
 16 17  1  0
 17 18  2  0
 18 19  1  0
 19 20  2  0
 20 21  1  0
 16 21  2  0
 22 23  2  0
 22 24  1  0
 17 23  1  0
 18 24  1  0
  1 20  1  0
M  END
> <chembl_id>
CHEMBL3735952

$$$$

  SciTegic12201616162D

 31 34  0  0  0  0            999 V2000
    3.8942   -1.4964    0.0000 N   0  0
    5.1929   -0.7441    0.0000 C   0  0
    5.1908    0.4559    0.0000 O   0  0
    6.4942   -1.4919    0.0000 N   0  0
    7.7928   -0.7396    0.0000 C   0  0
    9.0941   -1.4873    0.0000 C   0  0
   12.9858    0.7740    0.0000 O   0  0
   12.9909   -0.7260    0.0000 C   0  0
   11.6945   -1.4805    0.0000 C   0  0
   10.3928   -0.7351    0.0000 N   0  0
   10.3877    0.7650    0.0000 C   0  0
   11.6841    1.5195    0.0000 C   0  0
   -1.2964    1.4973    0.0000 N   0  0
   -2.6111    0.7486    0.0000 C   0  0
   -2.6111   -0.7486    0.0000 N   0  0
   -1.2964   -1.4973    0.0000 C   0  0
    0.0000   -0.7486    0.0000 C   0  0
    1.2964   -1.4973    0.0000 C   0  0
    2.5929   -0.7486    0.0000 C   0  0
    2.5929    0.7486    0.0000 C   0  0
    1.2964    1.4973    0.0000 C   0  0
    0.0000    0.7486    0.0000 C   0  0
   -1.2907   -2.9981    0.0000 N   0  0
   -2.5870   -3.7544    0.0000 C   0  0
   -2.5835   -5.2544    0.0000 C   0  0
   -3.8807   -6.0076    0.0000 C   0  0
   -5.1815   -5.2608    0.0000 C   0  0
   -5.1852   -3.7608    0.0000 C   0  0
   -3.8880   -3.0076    0.0000 C   0  0
   -6.2193   -5.8633    0.0000 F   0  0
   -3.8777   -7.2076    0.0000 Cl  0  0
  1  2  1  0
  2  3  2  0
  2  4  1  0
  5  6  1  0
  7  8  1  0
  8  9  1  0
  9 10  1  0
 10 11  1  0
 11 12  1  0
  7 12  1  0
  6 10  1  0
  4  5  1  0
 13 14  1  0
 14 15  2  0
 15 16  1  0
 16 17  2  0
 17 18  1  0
 18 19  2  0
 19 20  1  0
 20 21  2  0
 21 22  1  0
 13 22  2  0
 17 22  1  0
 24 25  1  0
 25 26  2  0
 26 27  1  0
 27 28  2  0
 28 29  1  0
 24 29  2  0
 27 30  1  0
 26 31  1  0
 23 24  1  0
 16 23  1  0
  1 19  1  0
M  END
> <chembl_id>
CHEMBL3815161

$$$$

  SciTegic08011209522D

 38 42  0  0  0  0            999 V2000
   31.5152  -13.7375    0.0000 N   0  0
   31.5141  -14.5648    0.0000 C   0  0
   32.2289  -14.9777    0.0000 N   0  0
   32.2271  -13.3247    0.0000 C   0  0
   32.9425  -13.7338    0.0000 C   0  0
   32.9459  -14.5669    0.0000 C   0  0
   33.6651  -14.9782    0.0000 N   0  0
   34.3855  -14.5610    0.0000 C   0  0
   34.3820  -13.7279    0.0000 N   0  0
   33.6582  -13.3120    0.0000 C   0  0
   33.6691  -15.7998    0.0000 C   0  0
   32.9541  -16.2136    0.0000 C   0  0
   32.9560  -17.0378    0.0000 C   0  0
   33.6721  -17.4492    0.0000 C   0  0
   34.3878  -17.0303    0.0000 C   0  0
   34.3824  -16.2075    0.0000 C   0  0
   30.7993  -14.9768    0.0000 N   0  0
   30.7986  -15.8018    0.0000 C   0  0
   30.0837  -16.2121    0.0000 C   0  0
   30.0827  -17.0364    0.0000 C   0  0
   30.7974  -17.4503    0.0000 C   0  0
   31.5146  -17.0339    0.0000 C   0  0
   31.5120  -16.2110    0.0000 C   0  0
   35.1011  -14.9716    0.0000 O   0  0
   35.1048  -17.4384    0.0000 N   0  0
   35.1100  -18.2633    0.0000 C   0  0
   35.8270  -18.6714    0.0000 C   0  0
   34.3981  -18.6803    0.0000 O   0  0
   35.8322  -19.4964    0.0000 C   0  0
   30.7978  -18.2753    0.0000 N   0  0
   35.0952  -13.3132    0.0000 C   0  0
   30.0809  -18.6849    0.0000 C   0  0
   30.0794  -19.5063    0.0000 C   0  0
   30.7923  -19.9222    0.0000 N   0  0
   31.5083  -19.5106    0.0000 C   0  0
   31.5115  -18.6830    0.0000 C   0  0
   30.7896  -20.7472    0.0000 C   0  0
   29.3700  -15.7983    0.0000 F   0  0
 17 18  1  0
  6  7  1  0
 18 19  2  0
  7  8  1  0
 19 20  1  0
  8  9  1  0
 20 21  2  0
  9 10  1  0
 21 22  1  0
  5  6  1  0
 22 23  2  0
 23 18  1  0
  8 24  2  0
 11 12  2  0
 15 25  1  0
  2  3  1  0
 25 26  1  0
 12 13  1  0
 26 27  1  0
  3  6  2  0
 26 28  2  0
 13 14  2  0
 27 29  2  0
  1  2  2  0
 21 30  1  0
 14 15  1  0
  9 31  1  0
 30 32  1  0
  5  4  2  0
 15 16  2  0
 16 11  1  0
  7 11  1  0
  4  1  1  0
 30 36  1  0
 32 33  1  0
 33 34  1  0
 34 35  1  0
 35 36  1  0
  2 17  1  0
 34 37  1  0
  5 10  1  0
 19 38  1  0
M  END
> <chembl_id>
CHEMBL2029433

$$$$

  SciTegic07221310232D

 31 35  0  0  0  0            999 V2000
   -6.7508   -1.0848    0.0000 N   0  0
   -6.0288   -0.6637    0.0000 C   0  0
   -6.0288    0.1586    0.0000 N   0  0
   -6.7508    0.5797    0.0000 C   0  0
   -7.4627   -0.6637    0.0000 C   0  0
   -7.4627    0.1586    0.0000 C   0  0
   -8.2449    0.4092    0.0000 C   0  0
   -8.7262   -0.2626    0.0000 C   0  0
   -8.2449   -0.9144    0.0000 O   0  0
   -6.7539    1.4050    0.0000 N   0  0
   -9.5515   -0.2685    0.0000 C   0  0
   -9.9122    0.4745    0.0000 C   0  0
  -10.7352    0.5311    0.0000 C   0  0
  -11.1957   -0.1534    0.0000 C   0  0
  -10.8332   -0.8945    0.0000 C   0  0
  -10.0101   -0.9510    0.0000 C   0  0
   -8.5041    1.1929    0.0000 C   0  0
   -9.2944    1.4197    0.0000 C   0  0
   -9.4933    2.2204    0.0000 C   0  0
   -8.8994    2.7929    0.0000 C   0  0
   -8.1066    2.5649    0.0000 C   0  0
   -7.9077    1.7642    0.0000 C   0  0
   -6.0409    1.8209    0.0000 C   0  0  2  0  0  0
   -6.0440    2.6463    0.0000 C   0  0
   -5.3235    1.4126    0.0000 C   0  0
   -5.3184    0.5876    0.0000 C   0  0
   -4.6014    0.1795    0.0000 C   0  0
   -3.8895    0.5964    0.0000 C   0  0
   -3.8945    1.4214    0.0000 C   0  0
   -4.6115    1.8295    0.0000 C   0  0
   -5.3311    3.0615    0.0000 O   0  0
  3  4  2  0
 15 16  2  0
 16 11  1  0
  8 11  1  0
  6  7  1  0
  7  8  2  0
 17 18  2  0
  8  9  1  0
 18 19  1  0
  9  5  1  0
 19 20  2  0
  4  6  1  0
 20 21  1  0
  4 10  1  0
 21 22  2  0
 22 17  1  0
  7 17  1  0
  5  6  2  0
 23 10  1  6
  1  2  2  0
 23 24  1  0
 11 12  2  0
 23 25  1  0
  5  1  1  0
 12 13  1  0
  2  3  1  0
 13 14  2  0
 14 15  1  0
 25 26  1  0
 25 30  2  0
 26 27  2  0
 27 28  1  0
 28 29  2  0
 29 30  1  0
 24 31  1  0
M  END
> <chembl_id>
CHEMBL1172781

$$$$

  SciTegic12131613482D

 26 30  0  0  0  0            999 V2000
    0.8955    2.0810    0.0000 C   0  0
    1.7138    1.2033    0.0000 C   0  0
    2.8908    1.4370    0.0000 C   0  0
   -1.0028    1.5132    0.0000 N   0  0
   -2.3155    0.7475    0.0000 C   0  0
   -2.3155   -0.7475    0.0000 N   0  0
   -1.0028   -1.5132    0.0000 C   0  0
    0.2917    0.7475    0.0000 C   0  0
    0.2917   -0.7475    0.0000 C   0  0
    1.7138   -1.2033    0.0000 C   0  0
    2.5889    0.0182    0.0000 O   0  0
   -3.6168    1.4950    0.0000 C   0  0
   -4.9669    0.8708    0.0000 C   0  0
   -5.9732    1.9832    0.0000 N   0  0
   -5.2262    3.2840    0.0000 N   0  0
   -3.7582    2.9755    0.0000 C   0  0
   -0.9971   -3.0138    0.0000 N   0  0
   -2.2935   -3.7700    0.0000 C   0  0
   -4.6304   -4.2656    0.0000 N   0  0
   -3.6203   -3.1531    0.0000 C   0  0
   -3.8857   -5.5600    0.0000 C   0  0
   -2.4241   -5.2456    0.0000 C   0  0
   -1.4032   -6.3500    0.0000 C   0  0
   -1.8757   -7.7944    0.0000 C   0  0
   -3.3373   -8.1089    0.0000 C   0  0
   -4.3620   -6.9866    0.0000 C   0  0
  2  1  1  0
  3  2  1  0
  8  4  1  0
  4  5  2  0
  5  6  1  0
  6  7  2  0
  7  9  1  0
  8  9  2  0
  9 10  1  0
 10 11  1  0
 11  2  1  0
  2  8  1  0
  5 12  1  0
 12 13  2  0
 13 14  1  0
 14 15  1  0
 15 16  2  0
 16 12  1  0
  7 17  1  0
 17 18  1  0
 18 22  1  0
 21 19  1  0
 19 20  1  0
 20 18  2  0
 21 22  2  0
 21 26  1  0
 22 23  1  0
 23 24  2  0
 24 25  1  0
 25 26  2  0
M  END
> <chembl_id>
CHEMBL3758958

$$$$

  SciTegic12091614152D

 35 38  0  0  0  0            999 V2000
    6.9922    8.9442    0.0000 C   0  0
    7.4572   10.3704    0.0000 C   0  0
    6.4546   11.4862    0.0000 C   0  0
    4.9871   11.1758    0.0000 C   0  0
    4.5221    9.7497    0.0000 C   0  0
    5.5246    8.6340    0.0000 C   0  0
    7.9930    7.8258    0.0000 N   0  0
    6.9170   12.9140    0.0000 N   0  0
    5.5870    4.6698    0.0000 C   0  0
    6.0571    6.0943    0.0000 N   0  0
    7.5257    6.3996    0.0000 C   0  0
    8.5244    5.2803    0.0000 C   0  0
    8.0544    3.8559    0.0000 C   0  0
    6.5858    3.5506    0.0000 N   0  0
    4.1182    4.3614    0.0000 N   0  0
    3.6500    2.9355    0.0000 N   0  0
    2.1812    2.6271    0.0000 C   0  0
    1.7138    1.2033    0.0000 C   0  0
    9.6993    5.5245    0.0000 Cl  0  0
    5.9123   14.0290    0.0000 C   0  0
    4.7387   13.7787    0.0000 O   0  0
    6.3747   15.4568    0.0000 C   0  0
    5.3700   16.5718    0.0000 C   0  0
    5.8324   17.9996    0.0000 C   0  0
    4.8277   19.1145    0.0000 N   0  0
    5.1974   20.2562    0.0000 C   0  0
    3.6541   18.8642    0.0000 C   0  0
    1.7138   -1.2033    0.0000 N   0  0
    2.5889    0.0182    0.0000 C   0  0
    0.2917   -0.7475    0.0000 C   0  0
    0.2917    0.7475    0.0000 C   0  0
   -1.0028    1.5132    0.0000 C   0  0
   -2.3155    0.7475    0.0000 C   0  0
   -2.3155   -0.7475    0.0000 C   0  0
   -1.0028   -1.5132    0.0000 C   0  0
  1  2  1  0
  2  3  2  0
  3  4  1  0
  4  5  2  0
  5  6  1  0
  1  6  2  0
  1  7  1  0
  3  8  1  0
  9 10  1  0
 10 11  2  0
 11 12  1  0
 12 13  2  0
 13 14  1  0
  9 14  2  0
 15 16  1  0
 17 18  1  0
 16 17  2  0
  9 15  1  0
 12 19  1  0
  7 11  1  0
  8 20  1  0
 20 21  2  0
 20 22  1  0
 22 23  2  0
 23 24  1  0
 24 25  1  0
 25 26  1  0
 25 27  1  0
 18 31  1  0
 30 28  1  0
 28 29  1  0
 29 18  2  0
 30 31  2  0
 31 32  1  0
 32 33  2  0
 33 34  1  0
 34 35  2  0
 35 30  1  0
M  END
> <chembl_id>
CHEMBL3740802

$$$$

  SciTegic05061409512D

 26 29  0  0  0  0            999 V2000
   28.2958  -22.7245    0.0000 N   0  0
   29.0011  -22.3201    0.0000 C   0  0
   29.0011  -21.5029    0.0000 N   0  0
   28.2958  -21.0901    0.0000 C   0  0
   27.5905  -22.3201    0.0000 C   0  0
   27.5860  -21.5029    0.0000 C   0  0
   26.8148  -22.5768    0.0000 S   0  0
   26.3308  -21.9184    0.0000 C   0  0
   26.8062  -21.2585    0.0000 C   0  0
   26.4743  -20.5209    0.0000 C   0  0
   25.6659  -20.4369    0.0000 C   0  0
   25.1905  -21.0968    0.0000 N   0  0
   25.5234  -21.8407    0.0000 C   0  0
   28.2969  -20.2729    0.0000 N   0  0
   24.3775  -21.0138    0.0000 C   0  0
   24.0429  -20.2682    0.0000 C   0  0
   23.8991  -21.6763    0.0000 O   0  0
   24.5213  -19.6057    0.0000 C   0  0
   29.0052  -19.8653    0.0000 C   0  0
   29.7115  -20.2764    0.0000 C   0  0
   30.4193  -19.8695    0.0000 C   0  0
   30.4209  -19.0514    0.0000 C   0  0
   29.7087  -18.6420    0.0000 C   0  0
   29.0039  -19.0513    0.0000 C   0  0
   29.7070  -17.8248    0.0000 C   0  0
   31.1286  -18.6428    0.0000 Br  0  0
  6  4  1  0
  5  1  1  0
  1  2  2  0
  2  3  1  0
  3  4  2  0
  5  6  2  0
  6  9  1  0
  8  7  1  0
  7  5  1  0
  8  9  2  0
  8 13  1  0
  9 10  1  0
 10 11  1  0
 11 12  1  0
 12 13  1  0
  4 14  1  0
 12 15  1  0
 15 16  1  0
 15 17  2  0
 16 18  2  0
 14 19  1  0
 19 20  2  0
 20 21  1  0
 21 22  2  0
 22 23  1  0
 23 24  2  0
 24 19  1  0
 23 25  1  0
 22 26  1  0
M  END
> <chembl_id>
CHEMBL3133897

$$$$

  SciTegic12201610342D

 41 44  0  0  0  0            999 V2000
    2.5951   -3.0039    0.0000 C   0  0
    3.8933   -3.7570    0.0000 C   0  0
    3.8916   -4.9570    0.0000 C   0  0
    1.5548   -3.6021    0.0000 O   0  0
    2.5973   -1.5031    0.0000 N   0  0
    1.2990   -0.7500    0.0000 C   0  0
    1.2990    0.7500    0.0000 C   0  0
    0.0000    1.5000    0.0000 C   0  0
   -1.2990    0.7500    0.0000 C   0  0
   -1.2990   -0.7500    0.0000 C   0  0
    0.0000   -1.5000    0.0000 C   0  0
   -0.0031    3.0008    0.0000 O   0  0
   -3.9021    3.7404    0.0000 C   0  0
   -2.6005    2.9949    0.0000 N   0  0
   -1.3039    3.7494    0.0000 C   0  0
   -1.3092    5.2494    0.0000 C   0  0
   -2.6108    5.9949    0.0000 C   0  0
   -3.9073    5.2404    0.0000 N   0  0
   -0.0136    6.0070    0.0000 S   0  0
   -0.0195    7.2070    0.0000 C   0  0
   -5.2008    2.9882    0.0000 N   0  0
   -6.5021    3.7360    0.0000 C   0  0
   -7.8012    2.9860    0.0000 C   0  0
   -9.1002    3.7360    0.0000 C   0  0
   -9.1002    5.2360    0.0000 C   0  0
   -7.8012    5.9860    0.0000 C   0  0
   -6.5021    5.2360    0.0000 C   0  0
  -10.3999    5.9864    0.0000 N   0  0
  -11.7002    5.2385    0.0000 C   0  0
  -12.9981    5.9906    0.0000 C   0  0
  -12.9957    7.4906    0.0000 N   0  0
  -11.6955    8.2385    0.0000 C   0  0
  -10.3976    7.4864    0.0000 C   0  0
  -14.2927    8.2457    0.0000 C   0  0
  -15.3339    7.6492    0.0000 O   0  0
  -14.2882    9.7465    0.0000 C   0  0
  -15.3252   10.3503    0.0000 C   0  0
   -7.8043    1.4852    0.0000 O   0  0
   -9.1052    0.7367    0.0000 C   0  0
   -9.1077   -0.4633    0.0000 F   0  0
  -10.1433    1.3385    0.0000 F   0  0
  1  2  1  0
  2  3  2  0
  1  4  2  0
  1  5  1  0
  6  7  1  0
  7  8  2  0
  8  9  1  0
  9 10  2  0
 10 11  1  0
  6 11  2  0
 13 14  1  0
 14 15  2  0
 15 16  1  0
 16 17  2  0
 17 18  1  0
 13 18  2  0
 19 20  1  0
 16 19  1  0
 22 23  1  0
 23 24  2  0
 24 25  1  0
 25 26  2  0
 26 27  1  0
 22 27  2  0
 28 29  1  0
 29 30  1  0
 30 31  1  0
 31 32  1  0
 32 33  1  0
 28 33  1  0
 34 35  2  0
 34 36  1  0
 36 37  1  0
 31 34  1  0
 25 28  1  0
 38 39  1  0
 39 40  1  0
 39 41  1  0
 23 38  1  0
 21 22  1  0
 13 21  1  0
 12 15  1  0
  8 12  1  0
  5  6  1  0
M  END
> <chembl_id>
CHEMBL3799428

$$$$

  SciTegic12201616152D

 23 25  0  0  0  0            999 V2000
    5.1929   -0.7441    0.0000 C   0  0
    5.1908    0.4559    0.0000 C   0  0
    6.2333   -1.3420    0.0000 O   0  0
    3.8942   -1.4964    0.0000 N   0  0
   -1.2964    1.4973    0.0000 N   0  0
   -2.6111    0.7486    0.0000 C   0  0
   -2.6111   -0.7486    0.0000 N   0  0
   -1.2964   -1.4973    0.0000 C   0  0
    0.0000   -0.7486    0.0000 C   0  0
    1.2964   -1.4973    0.0000 C   0  0
    2.5929   -0.7486    0.0000 C   0  0
    2.5929    0.7486    0.0000 C   0  0
    1.2964    1.4973    0.0000 C   0  0
    0.0000    0.7486    0.0000 C   0  0
   -1.2907   -2.9981    0.0000 N   0  0
   -2.5870   -3.7544    0.0000 C   0  0
   -2.5835   -5.2544    0.0000 C   0  0
   -3.8807   -6.0076    0.0000 C   0  0
   -5.1815   -5.2608    0.0000 C   0  0
   -5.1852   -3.7608    0.0000 C   0  0
   -3.8880   -3.0076    0.0000 C   0  0
   -3.8770   -7.5084    0.0000 C   0  0
   -3.8741   -8.7084    0.0000 C   0  0
  1  2  1  0
  1  3  2  0
  1  4  1  0
  5  6  1  0
  6  7  2  0
  7  8  1  0
  8  9  2  0
  9 10  1  0
 10 11  2  0
 11 12  1  0
 12 13  2  0
 13 14  1  0
  5 14  2  0
  9 14  1  0
 16 17  1  0
 17 18  2  0
 18 19  1  0
 19 20  2  0
 20 21  1  0
 16 21  2  0
 22 23  3  0
 18 22  1  0
 15 16  1  0
  8 15  1  0
  4 11  1  0
M  END
> <chembl_id>
CHEMBL3815074

$$$$

  SciTegic01161211252D

 36 40  0  0  0  0            999 V2000
    0.6831  -22.6485    0.0000 N   0  0
    1.3995  -22.2352    0.0000 C   0  0
    1.3966  -21.4047    0.0000 N   0  0
    0.6813  -20.9955    0.0000 C   0  0
   -0.0318  -22.2357    0.0000 C   0  0
   -0.0305  -21.4068    0.0000 C   0  0
   -0.8185  -21.1494    0.0000 C   0  0
   -1.3068  -21.8193    0.0000 C   0  0
   -0.8205  -22.4906    0.0000 O   0  0
    0.6794  -20.1705    0.0000 N   0  0
   -2.1285  -21.8179    0.0000 C   0  0
   -2.5393  -21.1012    0.0000 C   0  0
   -3.3635  -21.0996    0.0000 C   0  0
   -3.7779  -21.8140    0.0000 C   0  0
   -3.3620  -22.5315    0.0000 C   0  0
   -2.5391  -22.5295    0.0000 C   0  0
   -1.2223  -20.4309    0.0000 C   0  0
   -0.7992  -19.7214    0.0000 C   0  0
   -1.2020  -19.0023    0.0000 C   0  0
   -2.0278  -18.9916    0.0000 C   0  0
   -2.4491  -19.7058    0.0000 C   0  0
   -2.0439  -20.4220    0.0000 C   0  0
    1.3930  -19.7565    0.0000 C   0  0  2  0  0  0
    2.1084  -20.1674    0.0000 C   0  0
    1.3912  -18.9315    0.0000 C   0  0
    2.1048  -18.5174    0.0000 O   0  0
    2.1074  -20.9927    0.0000 C   0  0
    2.8219  -21.4036    0.0000 C   0  0
    3.5365  -20.9895    0.0000 C   0  0
    3.5320  -20.1602    0.0000 C   0  0
    2.8169  -19.7531    0.0000 C   0  0
   -3.2741  -19.6984    0.0000 N   0  0
   -3.6802  -18.9803    0.0000 C   0  0
   -4.5051  -18.9729    0.0000 C   0  0
   -3.2613  -18.2695    0.0000 O   0  0
   -4.9112  -18.2547    0.0000 C   0  0
  7  8  2  0
 17 18  2  0
  8  9  1  0
 18 19  1  0
  9  5  1  0
 19 20  2  0
  4  6  1  0
 20 21  1  0
  4 10  1  0
 21 22  2  0
 22 17  1  0
  7 17  1  0
  5  6  2  0
 23 10  1  6
  1  2  2  0
 23 24  1  0
 11 12  2  0
 23 25  1  0
  5  1  1  0
 25 26  1  0
 12 13  1  0
 24 27  2  0
  2  3  1  0
 27 28  1  0
 13 14  2  0
 28 29  2  0
 29 30  1  0
 14 15  1  0
 30 31  2  0
 31 24  1  0
  3  4  2  0
 21 32  1  0
 15 16  2  0
 32 33  1  0
 16 11  1  0
 33 34  1  0
  8 11  1  0
 33 35  2  0
  6  7  1  0
 34 36  2  0
M  END
> <chembl_id>
CHEMBL1172843

$$$$

  SciTegic11131810052D

 30 33  0  0  1  0            999 V2000
    3.8969    0.4545    0.0000 C   0  0
    3.8990   -0.7455    0.0000 C   0  0  1  0  0  0
    2.6003   -1.4977    0.0000 O   0  0
    1.2990   -0.7500    0.0000 C   0  0
    1.2990    0.7500    0.0000 C   0  0
    0.0000    1.5000    0.0000 C   0  0
   -1.2990    0.7500    0.0000 C   0  0
   -1.2990   -0.7500    0.0000 N   0  0
    0.0000   -1.5000    0.0000 C   0  0
    0.0000   -2.7000    0.0000 N   0  0
    0.0000    3.0008    0.0000 C   0  0
    1.2121    3.8625    0.0000 C   0  0
    0.7463    5.2884    0.0000 N   0  0
   -0.7537    5.2860    0.0000 N   0  0
   -1.2149    3.8587    0.0000 C   0  0
   -1.6377    6.4987    0.0000 C   0  0
   -1.1355    7.9069    0.0000 C   0  0
   -2.1078    9.0491    0.0000 C   0  0
   -3.5831    8.7781    0.0000 N   0  0
   -4.0862    7.3650    0.0000 C   0  0
   -3.1139    6.2228    0.0000 C   0  0
    5.2003   -1.4932    0.0000 C   0  0
    5.2056   -2.9933    0.0000 C   0  0
    4.1684   -3.5969    0.0000 Cl  0  0
    6.5072   -3.7388    0.0000 C   0  0
    7.8036   -2.9844    0.0000 C   0  0
    7.7985   -1.4844    0.0000 C   0  0
    8.8357   -0.8808    0.0000 F   0  0
    6.4969   -0.7388    0.0000 C   0  0
    6.4928    0.4612    0.0000 Cl  0  0
  2  1  1  6
  2  3  1  0
  3  4  1  0
  4  5  2  0
  5  6  1  0
  6  7  2  0
  7  8  1  0
  8  9  2  0
  9  4  1  0
  9 10  1  0
  6 11  1  0
 11 12  1  0
 12 13  2  0
 13 14  1  0
 14 15  1  0
 15 11  2  0
 14 16  1  0
 16 17  1  0
 17 18  1  0
 18 19  1  0
 19 20  1  0
 20 21  1  0
 21 16  1  0
  2 22  1  0
 22 23  2  0
 23 24  1  0
 23 25  1  0
 25 26  2  0
 26 27  1  0
 27 28  1  0
 27 29  2  0
 29 22  1  0
 29 30  1  0
M  END
> <chembl_id>
CHEMBL601719

$$$$

  SciTegic06051313552D

 40 44  0  0  0  0            999 V2000
    7.1520  -32.7460    0.0000 O   0  0
    7.8665  -33.1586    0.0000 C   0  0
    8.5810  -32.7460    0.0000 C   0  0
    8.5810  -31.9210    0.0000 N   0  0
    8.1655  -30.6527    0.0000 C   0  0
    7.9128  -31.4391    0.0000 C   0  0
    8.9917  -30.6514    0.0000 C   0  0
    9.2431  -31.4369    0.0000 C   0  0
   10.0476  -31.6106    0.0000 C   0  0
   10.6013  -30.9997    0.0000 N   0  0
   10.3451  -30.2124    0.0000 C   0  0
    9.5413  -30.0424    0.0000 N   0  0
    6.4376  -33.1586    0.0000 C   0  0
    5.7231  -32.7460    0.0000 C   0  0
   10.4737  -32.3169    0.0000 N   0  0
   11.2986  -32.3015    0.0000 C   0  0
   11.7190  -33.0087    0.0000 C   0  0
   12.5431  -32.9937    0.0000 C   0  0
   12.9430  -32.2711    0.0000 C   0  0
   12.5128  -31.5622    0.0000 C   0  0
   11.6901  -31.5807    0.0000 C   0  0
   12.9094  -30.8388    0.0000 Cl  0  0
   13.7678  -32.2547    0.0000 O   0  0
   14.1660  -31.5322    0.0000 C   0  0
   14.9892  -31.5177    0.0000 C   0  0
   15.3873  -30.7960    0.0000 C   0  0
   14.9606  -30.0889    0.0000 C   0  0
   14.1315  -30.1081    0.0000 C   0  0
   13.7371  -30.8303    0.0000 C   0  0
    5.0086  -33.1586    0.0000 O   0  0
   13.7023  -29.4035    0.0000 N   0  0
   14.0979  -28.6795    0.0000 C   0  0
   13.6688  -27.9750    0.0000 N   0  0
   14.9227  -28.6601    0.0000 O   0  0
   14.0644  -27.2510    0.0000 C   0  0
   14.8893  -27.2356    0.0000 C   0  0
   15.2849  -26.5157    0.0000 C   0  0
   14.8592  -25.8085    0.0000 C   0  0
   14.0334  -25.8260    0.0000 C   0  0
   13.6333  -26.5506    0.0000 C   0  0
  1  2  1  0
  2  3  1  0
  3  4  1  0
  4  8  1  0
  7  5  1  0
  5  6  2  0
  6  4  1  0
  7  8  2  0
  8  9  1  0
  9 10  2  0
 10 11  1  0
 11 12  2  0
 12  7  1  0
  1 13  1  0
 13 14  1  0
  9 15  1  0
 15 16  1  0
 16 17  2  0
 17 18  1  0
 18 19  2  0
 19 20  1  0
 20 21  2  0
 21 16  1  0
 20 22  1  0
 19 23  1  0
 23 24  1  0
 24 25  2  0
 25 26  1  0
 26 27  2  0
 27 28  1  0
 28 29  2  0
 29 24  1  0
 14 30  1  0
 28 31  1  0
 31 32  1  0
 32 33  1  0
 32 34  2  0
 33 35  1  0
 35 36  1  0
 35 40  1  0
 36 37  1  0
 37 38  1  0
 38 39  1  0
 39 40  1  0
M  END
> <chembl_id>
CHEMBL2322330

$$$$

  SciTegic12211613092D

 30 33  0  0  0  0            999 V2000
   -5.3425    5.2369    0.0000 N   0  0
   -5.2049    3.7560    0.0000 C   0  0  1  0  0  0
   -6.5563    3.1351    0.0000 C   0  0
   -7.5599    4.2500    0.0000 O   0  0
   -6.8097    5.5489    0.0000 C   0  0
   -3.9067    3.0027    0.0000 C   0  0
   -2.8664    3.6008    0.0000 O   0  0
   -3.9091    1.5019    0.0000 N   0  0
   -2.6111    0.7486    0.0000 C   0  0
   -2.6111   -0.7486    0.0000 C   0  0
   -1.2964   -1.4973    0.0000 C   0  0
   -1.2964    1.4973    0.0000 C   0  0
    0.0000    0.7486    0.0000 C   0  0
    0.0000   -0.7486    0.0000 C   0  0
    1.2964   -1.4973    0.0000 N   0  0
    2.5929   -0.7486    0.0000 C   0  0
    2.5929    0.7486    0.0000 N   0  0
    1.2964    1.4973    0.0000 C   0  0
   -3.9091   -1.5019    0.0000 O   0  0
    1.2995    2.9981    0.0000 N   0  0
    2.6003    3.7467    0.0000 C   0  0
    2.6056    5.2467    0.0000 C   0  0
    3.9072    5.9922    0.0000 C   0  0
    5.2037    5.2377    0.0000 C   0  0
    5.1985    3.7377    0.0000 C   0  0
    3.8969    2.9922    0.0000 C   0  0
   -7.2976    6.6452    0.0000 O   0  0
   -3.9072   -2.7019    0.0000 C   0  0
    6.2356    3.1342    0.0000 Cl  0  0
    6.2450    5.8341    0.0000 F   0  0
  1  2  1  0
  2  3  1  0
  3  4  1  0
  4  5  1  0
  5  1  1  0
  2  6  1  6
  6  7  2  0
  6  8  1  0
  8  9  1  0
  9 10  2  0
 10 11  1  0
 11 14  2  0
 13 12  2  0
 12  9  1  0
 13 14  1  0
 14 15  1  0
 15 16  2  0
 16 17  1  0
 17 18  2  0
 18 13  1  0
 10 19  1  0
 18 20  1  0
 20 21  1  0
 21 22  2  0
 22 23  1  0
 23 24  2  0
 24 25  1  0
 25 26  2  0
 26 21  1  0
  5 27  2  0
 19 28  1  0
 25 29  1  0
 24 30  1  0
M  END
> <chembl_id>
CHEMBL3818547

$$$$

  SciTegic08241115302D

 31 35  0  0  0  0            999 V2000
   -4.2468    0.0500    0.0000 C   0  0
   -4.2479   -0.7773    0.0000 C   0  0
   -3.5331   -1.1901    0.0000 C   0  0
   -2.8169   -0.7769    0.0000 C   0  0
   -2.8197    0.0537    0.0000 C   0  0
   -3.5349    0.4627    0.0000 C   0  0
   -3.5333   -2.0149    0.0000 O   0  0
   -2.1017   -1.1881    0.0000 C   0  0
   -2.0178   -2.0109    0.0000 C   0  0
   -1.2107   -2.1812    0.0000 C   0  0
   -0.7994   -1.4661    0.0000 N   0  0
   -1.3524   -0.8540    0.0000 N   0  0
   -0.8740   -2.9343    0.0000 C   0  0
   -1.3589   -3.6066    0.0000 C   0  0
   -1.0256   -4.3572    0.0000 N   0  0
   -0.2051   -4.4464    0.0000 C   0  0
    0.2808   -3.7787    0.0000 C   0  0
   -0.0536   -3.0217    0.0000 C   0  0
   -1.3581   -0.0250    0.0000 C   0  0
   -0.6467    0.3924    0.0000 C   0  0
   -2.0754    0.3823    0.0000 O   0  0
    0.1056    0.0629    0.0000 C   0  0
    0.6532    0.6798    0.0000 C   0  0
    0.2357    1.3912    0.0000 C   0  0
   -0.5699    1.2140    0.0000 S   0  0
    0.5657    2.1472    0.0000 C   0  0
    1.3889    2.2341    0.0000 N   0  0
    1.7194    2.9859    0.0000 C   0  0
    1.2330    3.6526    0.0000 C   0  0
    0.4120    3.5623    0.0000 C   0  0
    0.0776    2.8055    0.0000 C   0  0
  4  8  1  0
  8  9  1  0
 13 18  1  0
 14 15  1  0
 15 16  2  0
 16 17  1  0
 17 18  2  0
 12 19  1  0
  4  5  1  0
 19 20  1  0
  2  3  1  0
 19 21  2  0
 20 22  2  0
  5  6  2  0
  9 10  1  0
 10 11  2  0
 11 12  1  0
 22 23  1  0
 23 24  2  0
 24 25  1  0
 25 20  1  0
 12  8  1  0
 24 26  1  0
 26 27  1  0
  6  1  1  0
 10 13  1  0
 13 14  2  0
  1  2  2  0
  3  7  1  0
 26 31  2  0
 27 28  2  0
 28 29  1  0
 29 30  2  0
 30 31  1  0
  3  4  2  0
M  END
> <chembl_id>
CHEMBL1778666

$$$$

  SciTegic01181116592D

 42 48  0  0  0  0            999 V2000
   19.0940  -23.9684    0.0000 C   0  0  2  0  0  0
   18.5425  -24.5807    0.0000 C   0  0
   18.7944  -25.3625    0.0000 C   0  0
   19.6008  -25.5384    0.0000 C   0  0  1  0  0  0
   20.1550  -24.9260    0.0000 C   0  0
   19.9028  -24.1377    0.0000 C   0  0
   19.8526  -26.3241    0.0000 N   0  0
   19.2997  -26.9329    0.0000 C   0  0
   19.5486  -27.7157    0.0000 C   0  0
   20.3543  -27.8946    0.0000 N   0  0
   20.9108  -27.2843    0.0000 C   0  0
   20.6617  -26.4951    0.0000 C   0  0
   20.6032  -28.6812    0.0000 C   0  0
   18.8380  -23.1841    0.0000 N   0  0
   16.6277  -22.1083    0.0000 N   0  0
   16.6266  -22.9315    0.0000 C   0  0
   17.3456  -23.3444    0.0000 N   0  0
   17.3438  -21.6955    0.0000 C   0  0
   18.0550  -22.1047    0.0000 C   0  0
   18.0557  -22.9315    0.0000 C   0  0
   19.3238  -22.5210    0.0000 N   0  0
   18.8401  -21.8509    0.0000 C   0  0
   19.2507  -21.1360    0.0000 C   0  0
   20.0766  -21.1379    0.0000 C   0  0
   20.4874  -20.4234    0.0000 C   0  0
   20.0733  -19.7088    0.0000 C   0  0
   19.2440  -19.7133    0.0000 C   0  0
   18.8369  -20.4285    0.0000 C   0  0
   20.4833  -18.9929    0.0000 N   0  0
   21.3083  -18.9900    0.0000 C   0  0
   21.7951  -19.6504    0.0000 O   0  0
   21.7903  -18.3156    0.0000 N   0  0
   22.5759  -18.5676    0.0000 C   0  0
   22.5766  -19.3899    0.0000 C   0  0
   23.2879  -19.7985    0.0000 C   0  0
   23.9989  -19.3861    0.0000 C   0  0
   23.9942  -18.5608    0.0000 C   0  0
   23.2823  -18.1558    0.0000 C   0  0
   23.2895  -20.6235    0.0000 Cl  0  0
   17.3434  -20.8705    0.0000 N   0  0
   20.0464  -29.2900    0.0000 C   0  0
   21.4088  -28.8589    0.0000 C   0  0
  4  5  1  0
  7 12  1  0
 20 14  1  0
 14 21  1  0
 21 22  2  0
 22 19  1  0
  8  9  1  0
 22 23  1  0
  9 10  1  0
 23 24  2  0
 10 11  1  0
 24 25  1  0
 11 12  1  0
 25 26  2  0
  5  6  1  0
 26 27  1  0
 10 13  1  0
 27 28  2  0
 28 23  1  0
  1  2  1  0
 26 29  1  0
  1 14  1  1
 29 30  1  0
 30 31  1  0
  4  7  1  1
  7  8  1  0
 31 34  1  0
 33 32  1  0
 32 30  2  0
 15 16  2  0
 33 34  2  0
 16 17  1  0
 34 35  1  0
 17 20  2  0
 35 36  2  0
  1  6  1  0
 36 37  1  0
 19 18  2  0
 37 38  2  0
 38 33  1  0
 18 15  1  0
 35 39  1  0
 19 20  1  0
 18 40  1  0
  2  3  1  0
 13 41  1  0
  3  4  1  0
 13 42  1  0
M  END
> <chembl_id>
CHEMBL1256426

$$$$

  SciTegic05061409512D

 24 26  0  0  0  0            999 V2000
    6.5331   -4.7903    0.0000 N   0  0
    7.2428   -4.3808    0.0000 C   0  0
    7.2400   -3.5582    0.0000 N   0  0
    6.5313   -3.1529    0.0000 C   0  0
    5.8251   -4.3813    0.0000 C   0  0
    5.8274   -3.5594    0.0000 C   0  0
    5.1179   -3.1483    0.0000 C   0  0
    4.4056   -3.5579    0.0000 C   0  0
    4.4073   -4.3829    0.0000 C   0  0
    5.1174   -4.7903    0.0000 C   0  0
    6.5296   -2.3357    0.0000 N   0  0
    3.6978   -3.1494    0.0000 N   0  0
    2.9902   -3.5581    0.0000 C   0  0
    2.2824   -3.1497    0.0000 C   0  0
    2.9903   -4.3753    0.0000 O   0  0
    1.5748   -3.5584    0.0000 C   0  0
    7.2365   -1.9256    0.0000 C   0  0
    7.9454   -2.3378    0.0000 C   0  0
    8.6518   -1.9284    0.0000 C   0  0
    8.6505   -1.1104    0.0000 C   0  0
    7.9370   -0.7034    0.0000 C   0  0
    7.2335   -1.1152    0.0000 C   0  0
    6.5239   -0.7100    0.0000 Br  0  0
    7.9449   -3.1550    0.0000 F   0  0
  5  1  1  0
  1  2  2  0
  2  3  1  0
  3  4  2  0
  4  6  1  0
  5  6  1  0
  6  7  2  0
  7  8  1  0
  8  9  2  0
  9 10  1  0
 10  5  2  0
  4 11  1  0
  8 12  1  0
 12 13  1  0
 13 14  1  0
 13 15  2  0
 14 16  2  0
 11 17  1  0
 17 18  2  0
 18 19  1  0
 19 20  2  0
 20 21  1  0
 21 22  2  0
 22 17  1  0
 22 23  1  0
 18 24  1  0
M  END
> <chembl_id>
CHEMBL3133901

$$$$

  SciTegic12201615532D

 35 39  0  0  0  0            999 V2000
    5.5974   -4.6579    0.0000 C   0  0
    6.0699   -6.0824    0.0000 C   0  0
    7.0491   -6.2850    0.0000 C   0  0
    6.2622   -3.9109    0.0000 O   0  0
    4.1277   -4.3539    0.0000 N   0  0
    3.6552   -2.9294    0.0000 C   0  0
    2.1855   -2.6254    0.0000 C   0  0
    2.5889    0.0182    0.0000 C   0  0
    1.7138   -1.2033    0.0000 N   0  0
    0.2917   -0.7475    0.0000 C   0  0
    0.2917    0.7475    0.0000 C   0  0
    1.7138    1.2033    0.0000 N   0  0
   -1.0028    1.5132    0.0000 C   0  0
   -2.3155    0.7475    0.0000 C   0  0
   -2.3155   -0.7475    0.0000 C   0  0
   -1.0028   -1.5132    0.0000 C   0  0
    4.0896    0.0290    0.0000 C   0  0
    4.9412   -1.1997    0.0000 C   0  0
    4.7258    1.3894    0.0000 N   0  0
    6.4360   -1.0753    0.0000 N   0  0
    7.0757    0.2814    0.0000 C   0  0
    6.2206    1.5138    0.0000 C   0  0
    8.5168    4.6169    0.0000 N   0  0
    7.1611    5.2587    0.0000 N   0  0
    6.1317    4.1676    0.0000 C   0  0
    6.8606    2.8712    0.0000 C   0  0
    8.3253    3.1291    0.0000 C   0  0
   12.3453    6.9713    0.0000 N   0  0
   12.4234    5.4734    0.0000 C   0  0
   11.1651    4.6568    0.0000 C   0  0
    9.8336    5.3368    0.0000 C   0  0
    9.7508    6.8362    0.0000 C   0  0
   11.0091    7.6528    0.0000 C   0  0
   13.3520    7.6246    0.0000 C   0  0
    4.4291   -2.2850    0.0000 N   0  0
  1  2  1  0
  2  3  2  0
  1  4  2  0
  1  5  1  0
  6  7  1  0
  8  9  1  0
  9 10  1  0
 10 11  1  0
 11 12  1  0
  8 12  2  0
 13 14  1  0
 14 15  2  0
 15 16  1  0
 10 16  2  0
 11 13  2  0
 17 18  1  0
 17 19  2  0
 18 20  2  0
 20 21  1  0
 21 22  2  0
 19 22  1  0
 23 24  1  0
 24 25  2  0
 25 26  1  0
 26 27  2  0
 23 27  1  0
 28 29  1  0
 29 30  1  0
 30 31  1  0
 31 32  1  0
 32 33  1  0
 28 33  1  0
 28 34  1  0
 23 31  1  0
 22 26  1  0
 18 35  1  0
  8 17  1  0
  7  9  1  0
  5  6  1  0
M  END
> <chembl_id>
CHEMBL3813746

$$$$

  SciTegic04201609482D

 36 40  0  0  0  0            999 V2000
   -1.0028    1.5132    0.0000 C   0  0
   -2.3155    0.7475    0.0000 N   0  0
   -2.3155   -0.7475    0.0000 C   0  0
   -1.0028   -1.5132    0.0000 N   0  0
    0.2917    0.7475    0.0000 C   0  0
    0.2917   -0.7475    0.0000 C   0  0
    1.7138   -1.2033    0.0000 N   0  0
    2.5889    0.0182    0.0000 C   0  0
    1.7138    1.2033    0.0000 N   0  0
    2.1855   -2.6254    0.0000 C   0  0
    3.6552   -2.9294    0.0000 C   0  0
   -0.9971    3.0138    0.0000 N   0  0
   -2.2935    3.7700    0.0000 C   0  0
   -3.6168   -1.4950    0.0000 N   0  0
   -3.7580   -2.9756    0.0000 C   0  0
   -4.9669   -0.8711    0.0000 C   0  0
   -2.2901    5.2700    0.0000 C   0  0
   -3.5873    6.0231    0.0000 C   0  0
   -4.8881    5.2761    0.0000 C   0  0
   -4.8917    3.7761    0.0000 C   0  0
   -3.5944    3.0231    0.0000 C   0  0
   -6.1860    6.0296    0.0000 N   0  0
   -6.1849    7.5297    0.0000 C   0  0
   -7.4834    8.2807    0.0000 C   0  0
   -8.7830    7.5317    0.0000 N   0  0
   -8.7842    6.0317    0.0000 C   0  0
   -7.4858    5.2807    0.0000 C   0  0
   -9.8218    8.1325    0.0000 C   0  0
   -5.9730   -1.9836    0.0000 C   0  0
   -5.2259   -3.2843    0.0000 C   0  0  2  0  0  0
    4.0330   -4.0684    0.0000 O   0  0
   -5.8354   -4.6530    0.0000 N   0  0
   -4.9542   -5.8678    0.0000 C   0  0
   -5.5648   -7.2388    0.0000 C   0  0
   -3.7607   -5.7429    0.0000 O   0  0
   -4.8601   -8.2102    0.0000 C   0  0
  5  1  2  0
  1  2  1  0
  2  3  2  0
  3  4  1  0
  4  6  2  0
  5  6  1  0
  6  7  1  0
  7  8  1  0
  8  9  2  0
  9  5  1  0
  7 10  1  0
 10 11  1  0
  1 12  1  0
 12 13  1  0
  3 14  1  0
 14 15  1  0
 15 30  1  0
 29 16  1  0
 16 14  1  0
 13 17  2  0
 17 18  1  0
 18 19  2  0
 19 20  1  0
 20 21  2  0
 21 13  1  0
 22 23  1  0
 22 27  1  0
 23 24  1  0
 24 25  1  0
 25 26  1  0
 26 27  1  0
 19 22  1  0
 25 28  1  0
 29 30  1  0
 11 31  1  0
 30 32  1  1
 32 33  1  0
 33 34  1  0
 33 35  2  0
 34 36  2  0
M  END
> <chembl_id>
CHEMBL3608431

$$$$

  SciTegic11131810092D

 31 34  0  0  0  0            999 V2000
    3.6387   -0.8963    0.0000 C   0  0
    2.6003   -1.4977    0.0000 O   0  0
    1.2990   -0.7500    0.0000 C   0  0
    1.2990    0.7500    0.0000 C   0  0
    0.0000    1.5000    0.0000 C   0  0
    0.0000    3.0000    0.0000 N   0  0
   -1.2991    3.7500    0.0000 C   0  0
   -2.5981    3.0000    0.0000 N   0  0
   -2.5981    1.5000    0.0000 C   0  0
   -3.8994    0.7522    0.0000 N   0  0
   -5.1981    1.5045    0.0000 C   0  0
   -6.4998    0.7590    0.0000 C   0  0
   -7.7962    1.5135    0.0000 C   0  0
   -7.7910    3.0135    0.0000 C   0  0
   -8.8282    3.6171    0.0000 F   0  0
   -6.4894    3.7590    0.0000 C   0  0
   -6.4853    4.9590    0.0000 Cl  0  0
   -5.1930    3.0045    0.0000 C   0  0
   -1.2990    0.7500    0.0000 C   0  0
   -1.2990   -0.7500    0.0000 C   0  0
    0.0000   -1.5000    0.0000 C   0  0
   -0.0031   -3.0008    0.0000 O   0  0
   -1.3039   -3.7494    0.0000 C   0  0
   -1.3070   -5.2502    0.0000 C   0  0
   -2.6078   -5.9988    0.0000 C   0  0
   -2.6109   -7.4996    0.0000 N   0  0
   -3.9099   -8.2497    0.0000 C   0  0
   -3.9099   -9.7497    0.0000 C   0  0
   -2.6109  -10.4997    0.0000 O   0  0
   -1.3119   -9.7497    0.0000 C   0  0
   -1.3118   -8.2497    0.0000 C   0  0
  1  2  1  0
  2  3  1  0
  3  4  2  0
  4  5  1  0
  5  6  2  0
  6  7  1  0
  7  8  2  0
  8  9  1  0
  9 10  1  0
 10 11  1  0
 11 12  2  0
 12 13  1  0
 13 14  2  0
 14 15  1  0
 14 16  1  0
 16 17  1  0
 16 18  2  0
 18 11  1  0
  9 19  2  0
 19  5  1  0
 19 20  1  0
 20 21  2  0
 21  3  1  0
 21 22  1  0
 22 23  1  0
 23 24  1  0
 24 25  1  0
 25 26  1  0
 26 27  1  0
 27 28  1  0
 28 29  1  0
 29 30  1  0
 30 31  1  0
 31 26  1  0
M  END
> <chembl_id>
CHEMBL939

$$$$

  SciTegic12121614122D

 41 45  0  0  0  0            999 V2000
   -1.2913    7.5063    0.0000 C   0  0
   -2.5882    8.2616    0.0000 C   0  0
   -2.5845    9.4615    0.0000 C   0  0
   -0.2500    8.1028    0.0000 O   0  0
   -1.2959    6.0055    0.0000 N   0  0
    0.0011    5.2503    0.0000 C   0  0
   -0.0014    3.7503    0.0000 C   0  0
    1.2964    2.9980    0.0000 C   0  0
    2.5967    3.7460    0.0000 C   0  0
    2.5992    5.2460    0.0000 C   0  0
    1.3014    5.9981    0.0000 C   0  0
   -2.6111    0.7486    0.0000 C   0  0
   -1.2964    1.4973    0.0000 N   0  0
    0.0000    0.7486    0.0000 C   0  0
    0.0000   -0.7486    0.0000 C   0  0
   -1.2964   -1.4973    0.0000 C   0  0
   -2.6111   -0.7486    0.0000 N   0  0
    1.2964   -1.4973    0.0000 C   0  0
    2.5929   -0.7486    0.0000 C   0  0
    2.5929    0.7486    0.0000 C   0  0
    1.2964    1.4973    0.0000 N   0  0
    3.6321    1.3486    0.0000 O   0  0
    1.2964   -2.6973    0.0000 C   0  0
   -3.9122    1.4966    0.0000 N   0  0
   -5.2109    0.7445    0.0000 C   0  0
   -6.5125    1.4901    0.0000 C   0  0
   -7.8091    0.7359    0.0000 C   0  0
   -7.8042   -0.7641    0.0000 C   0  0
   -6.5027   -1.5098    0.0000 C   0  0
   -5.2061   -0.7556    0.0000 C   0  0
   -9.1014   -1.5188    0.0000 N   0  0
  -10.4041   -0.7752    0.0000 C   0  0
  -11.6995   -1.5315    0.0000 C   0  0
  -11.6922   -3.0315    0.0000 N   0  0
  -10.3895   -3.7751    0.0000 C   0  0
   -9.0942   -3.0188    0.0000 C   0  0
  -12.7285   -3.6365    0.0000 C   0  0
   -6.5206    2.9910    0.0000 O   0  0
   -7.8239    3.7352    0.0000 C   0  0
   -7.8304    4.9352    0.0000 C   0  0
   -8.8601    3.1299    0.0000 C   0  0
  1  2  1  0
  2  3  2  0
  1  4  2  0
  1  5  1  0
  6  7  1  0
  7  8  2  0
  8  9  1  0
  9 10  2  0
 10 11  1  0
  6 11  2  0
 12 13  1  0
 13 14  2  0
 14 15  1  0
 15 16  2  0
 16 17  1  0
 12 17  2  0
 18 19  2  0
 19 20  1  0
 20 21  1  0
 14 21  1  0
 15 18  1  0
 20 22  2  0
 18 23  1  0
 25 26  1  0
 26 27  2  0
 27 28  1  0
 28 29  2  0
 29 30  1  0
 25 30  2  0
 31 32  1  0
 32 33  1  0
 33 34  1  0
 34 35  1  0
 35 36  1  0
 31 36  1  0
 34 37  1  0
 28 31  1  0
 39 40  1  0
 39 41  1  0
 38 39  1  0
 26 38  1  0
 24 25  1  0
 12 24  1  0
  8 21  1  0
  5  6  1  0
M  END
> <chembl_id>
CHEMBL3752365

$$$$

  SciTegic06051313552D

 28 32  0  0  0  0            999 V2000
    0.9437   -9.3894    0.0000 C   0  0
    0.9426  -10.2089    0.0000 C   0  0
    1.6506  -10.6179    0.0000 C   0  0
    2.3603  -10.2085    0.0000 C   0  0
    2.3575   -9.3858    0.0000 C   0  0
    1.6488   -8.9805    0.0000 C   0  0
    3.0381   -8.9337    0.0000 C   0  0
    3.8054   -9.2148    0.0000 C   0  0
    4.3100   -8.5720    0.0000 C   0  0
    3.8540   -7.8940    0.0000 N   0  0
    3.0685   -8.1171    0.0000 N   0  0
    4.2596   -7.1846    0.0000 C   0  0
    5.1244   -8.6021    0.0000 C   0  0
    6.3705   -7.9388    0.0000 C   0  0
    5.5558   -7.9120    0.0000 C   0  0
    5.0747   -7.1841    0.0000 C   0  0
    5.4801   -6.4755    0.0000 C   0  0
    5.0685   -5.7686    0.0000 C   0  0
    4.2471   -5.7747    0.0000 C   0  0
    3.8453   -6.4839    0.0000 C   0  0
    5.5065   -9.3230    0.0000 C   0  0
    6.7555   -8.6619    0.0000 C   0  0
    6.3215   -9.3540    0.0000 C   0  0
    6.7039  -10.0738    0.0000 C   0  0
    7.5201  -10.1027    0.0000 C   0  0
    7.9523   -9.4058    0.0000 C   0  0
    7.5675   -8.6889    0.0000 C   0  0
    0.2345  -10.6170    0.0000 Br  0  0
  1  2  2  0
  2  3  1  0
  3  4  2  0
  4  5  1  0
  5  6  2  0
  6  1  1  0
  7  8  1  0
  8  9  1  0
  9 10  1  0
 10 11  1  0
 11  7  2  0
  5  7  1  0
 10 12  1  0
 13 21  2  0
 22 14  1  0
 14 15  2  0
 15 13  1  0
  9 13  1  0
 12 16  2  0
 16 17  1  0
 17 18  2  0
 18 19  1  0
 19 20  2  0
 20 12  1  0
 23 21  1  0
 22 23  1  0
 23 24  2  0
 24 25  1  0
 25 26  2  0
 26 27  1  0
 27 22  2  0
  2 28  1  0
M  END
> <chembl_id>
CHEMBL2325098

$$$$

  SciTegic12201610342D

 40 43  0  0  0  0            999 V2000
    2.5951   -3.0039    0.0000 C   0  0
    3.8933   -3.7570    0.0000 C   0  0
    3.8916   -4.9570    0.0000 C   0  0
    1.5548   -3.6021    0.0000 O   0  0
    2.5973   -1.5031    0.0000 N   0  0
    1.2990   -0.7500    0.0000 C   0  0
    1.2990    0.7500    0.0000 C   0  0
    0.0000    1.5000    0.0000 C   0  0
   -1.2990    0.7500    0.0000 C   0  0
   -1.2990   -0.7500    0.0000 C   0  0
    0.0000   -1.5000    0.0000 C   0  0
   -0.0031    3.0008    0.0000 O   0  0
   -3.9021    3.7404    0.0000 C   0  0
   -2.6005    2.9949    0.0000 N   0  0
   -1.3039    3.7494    0.0000 C   0  0
   -1.3092    5.2494    0.0000 C   0  0
   -2.6108    5.9949    0.0000 C   0  0
   -3.9073    5.2404    0.0000 N   0  0
   -0.0136    6.0070    0.0000 S   0  0
   -0.0195    7.2070    0.0000 C   0  0
   -5.2008    2.9882    0.0000 N   0  0
   -6.5021    3.7360    0.0000 C   0  0
   -7.8012    2.9860    0.0000 C   0  0
   -9.1002    3.7360    0.0000 C   0  0
   -9.1002    5.2360    0.0000 C   0  0
   -7.8012    5.9860    0.0000 C   0  0
   -6.5021    5.2360    0.0000 C   0  0
   -7.8043    1.4852    0.0000 O   0  0
   -9.1052    0.7367    0.0000 C   0  0
   -9.1077   -0.4633    0.0000 F   0  0
  -10.1433    1.3385    0.0000 F   0  0
  -10.3999    5.9864    0.0000 N   0  0
  -11.7002    5.2385    0.0000 C   0  0
  -12.9981    5.9906    0.0000 C   0  0
  -12.9957    7.4906    0.0000 N   0  0
  -11.6955    8.2385    0.0000 C   0  0
  -10.3976    7.4864    0.0000 C   0  0
  -14.2927    8.2457    0.0000 C   0  0
  -14.2891    9.4457    0.0000 O   0  0
  -15.3339    7.6492    0.0000 C   0  0
  1  2  1  0
  2  3  2  0
  1  4  2  0
  1  5  1  0
  6  7  1  0
  7  8  2  0
  8  9  1  0
  9 10  2  0
 10 11  1  0
  6 11  2  0
 13 14  1  0
 14 15  2  0
 15 16  1  0
 16 17  2  0
 17 18  1  0
 13 18  2  0
 19 20  1  0
 16 19  1  0
 22 23  1  0
 23 24  2  0
 24 25  1  0
 25 26  2  0
 26 27  1  0
 22 27  2  0
 28 29  1  0
 29 30  1  0
 29 31  1  0
 23 28  1  0
 32 33  1  0
 33 34  1  0
 34 35  1  0
 35 36  1  0
 36 37  1  0
 32 37  1  0
 38 39  2  0
 38 40  1  0
 35 38  1  0
 25 32  1  0
 21 22  1  0
 13 21  1  0
 12 15  1  0
  8 12  1  0
  5  6  1  0
M  END
> <chembl_id>
CHEMBL3798128

$$$$

  SciTegic09261414462D

 33 36  0  0  0  0            999 V2000
   20.6524   -5.9913    0.0000 N   0  0
   21.3620   -5.5818    0.0000 C   0  0
   21.3592   -4.7592    0.0000 N   0  0
   20.6506   -4.3539    0.0000 C   0  0
   19.9443   -5.5823    0.0000 C   0  0
   19.9456   -4.7658    0.0000 C   0  0
   19.1694   -4.5123    0.0000 C   0  0
   18.6884   -5.1722    0.0000 C   0  0
   19.1674   -5.8334    0.0000 S   0  0
   20.6468   -3.5367    0.0000 N   0  0
   21.3526   -3.1249    0.0000 C   0  0
   22.0601   -3.5350    0.0000 C   0  0
   22.7654   -3.1239    0.0000 C   0  0
   22.7621   -2.3058    0.0000 C   0  0
   22.0475   -1.9006    0.0000 C   0  0
   21.3451   -2.3141    0.0000 C   0  0
   17.8712   -5.1710    0.0000 N   0  0
   17.4636   -4.4627    0.0000 C   0  0
   16.6464   -4.4615    0.0000 C   0  0
   17.8732   -3.7556    0.0000 O   0  0
   23.4673   -1.8930    0.0000 F   0  0
   23.4748   -3.5295    0.0000 Cl  0  0
   16.2389   -3.7532    0.0000 C   0  0
   15.4217   -3.7520    0.0000 C   0  0
   15.0141   -3.0437    0.0000 N   0  0
   15.4303   -2.3366    0.0000 C   0  0
   15.0262   -1.6304    0.0000 C   0  0
   14.2087   -1.6250    0.0000 N   0  0
   13.7969   -2.3319    0.0000 C   0  0
   14.2026   -3.0443    0.0000 C   0  0
   13.8038   -0.9151    0.0000 C   0  0
   14.2161   -0.2114    0.0000 C   0  0
   12.9866   -0.9109    0.0000 C   0  0
  5  1  1  0
  1  2  2  0
  2  3  1  0
  3  4  2  0
  4  6  1  0
  5  6  2  0
  6  7  1  0
  7  8  2  0
  8  9  1  0
  9  5  1  0
  4 10  1  0
 10 11  1  0
 11 12  2  0
 12 13  1  0
 13 14  2  0
 14 15  1  0
 15 16  2  0
 16 11  1  0
  8 17  1  0
 17 18  1  0
 18 19  1  0
 18 20  2  0
 14 21  1  0
 13 22  1  0
 19 23  2  0
 23 24  1  0
 24 25  1  0
 25 26  1  0
 25 30  1  0
 26 27  1  0
 27 28  1  0
 28 29  1  0
 29 30  1  0
 28 31  1  0
 31 32  1  0
 31 33  1  0
M  END
> <chembl_id>
CHEMBL3233791

$$$$

  SciTegic06051313552D

 25 28  0  0  0  0            999 V2000
   16.8707   -2.8230    0.0000 C   0  0
   16.8695   -3.6425    0.0000 C   0  0
   17.5776   -4.0515    0.0000 C   0  0
   18.2873   -3.6421    0.0000 C   0  0
   18.2845   -2.8193    0.0000 C   0  0
   17.5758   -2.4141    0.0000 C   0  0
   18.9651   -2.3672    0.0000 C   0  0
   19.7324   -2.6484    0.0000 C   0  0
   20.2369   -2.0056    0.0000 C   0  0
   19.7810   -1.3276    0.0000 N   0  0
   18.9955   -1.5506    0.0000 N   0  0
   20.1866   -0.6182    0.0000 C   0  0
   21.0038   -0.6147    0.0000 N   0  0
   19.7749    0.0938    0.0000 S   0  0
   21.0514   -2.0357    0.0000 C   0  0
   22.2974   -1.3724    0.0000 C   0  0
   21.4828   -1.3456    0.0000 C   0  0
   22.6841   -2.0971    0.0000 C   0  0
   22.2485   -2.7876    0.0000 C   0  0
   21.4334   -2.7566    0.0000 C   0  0
   21.0009   -3.4459    0.0000 C   0  0
   21.3823   -4.1666    0.0000 C   0  0
   22.2006   -4.1937    0.0000 C   0  0
   22.6294   -3.5037    0.0000 C   0  0
   16.1615   -4.0506    0.0000 Cl  0  0
  1  2  2  0
  2  3  1  0
  3  4  2  0
  4  5  1  0
  5  6  2  0
  6  1  1  0
  7  8  1  0
  8  9  1  0
  9 10  1  0
 10 11  1  0
 11  7  2  0
  5  7  1  0
 10 12  1  0
 12 13  1  0
 12 14  2  0
 15 20  2  0
 18 16  1  0
 16 17  2  0
 17 15  1  0
  9 15  1  0
 18 19  2  0
 19 20  1  0
 20 21  1  0
 21 22  2  0
 22 23  1  0
 23 24  2  0
 24 19  1  0
  2 25  1  0
M  END
> <chembl_id>
CHEMBL2325104

$$$$

  SciTegic12201611502D

 26 29  0  0  0  0            999 V2000
   -2.1332   -2.2973    0.0000 N   0  0
   -3.4277   -1.5498    0.0000 C   0  0
   -3.4277    0.0000    0.0000 N   0  0
   -2.1332    0.6928    0.0000 C   0  0
   -0.8205    0.0000    0.0000 C   0  0
    0.4558    0.6928    0.0000 C   0  0
    1.7503    0.0000    0.0000 C   0  0
    1.7503   -1.5498    0.0000 C   0  0
    0.4558   -2.2973    0.0000 C   0  0
   -0.8205   -1.5498    0.0000 C   0  0
    0.4558    2.1879    0.0000 O   0  0
    3.0631    0.6928    0.0000 O   0  0
    3.0631    2.1879    0.0000 C   0  0
    1.7503    2.9537    0.0000 C   0  0
   -2.1454    2.1947    0.0000 N   0  0
    3.0410   -2.3153    0.0000 O   0  0
    3.0239   -3.8160    0.0000 C   0  0
    4.0559   -4.4284    0.0000 C   0  0
   -3.4508    2.9353    0.0000 C   0  0
   -3.4653    4.4352    0.0000 C   0  0
   -4.7714    5.1728    0.0000 C   0  0
   -6.0632    4.4104    0.0000 C   0  0
   -6.0489    2.9104    0.0000 C   0  0
   -4.7427    2.1729    0.0000 C   0  0
   -7.1082    5.0004    0.0000 C   0  0
   -4.7829    6.3727    0.0000 Cl  0  0
  1  2  1  0
  2  3  2  0
  3  4  1  0
  4  5  2  0
  5  6  1  0
  6  7  2  0
  7  8  1  0
  8  9  2  0
  9 10  1  0
  1 10  2  0
  5 10  1  0
 12 13  1  0
 13 14  1  0
 11 14  1  0
  6 11  1  0
  7 12  1  0
  4 15  1  0
 17 18  1  0
 16 17  1  0
  8 16  1  0
 19 20  1  0
 20 21  2  0
 21 22  1  0
 22 23  2  0
 23 24  1  0
 19 24  2  0
 22 25  1  0
 21 26  1  0
 15 19  1  0
M  END
> <chembl_id>
CHEMBL3804868

$$$$

  SciTegic04091414352D

 36 39  0  0  0  0            999 V2000
    7.2027   -5.6632    0.0000 N   0  0
    7.9139   -6.0665    0.0000 C   0  0
    7.9202   -6.8842    0.0000 O   0  0
    8.6189   -5.6522    0.0000 N   0  0
    9.3301   -6.0556    0.0000 C   0  0
   10.0351   -5.6413    0.0000 C   0  0
   10.7463   -6.0446    0.0000 N   0  0
   10.7526   -6.8623    0.0000 C   0  0
   11.4639   -7.2656    0.0000 C   0  0
   11.4513   -5.6303    0.0000 C   0  0
   11.4449   -4.8127    0.0000 C   0  0
    4.3829   -7.3204    0.0000 N   0  0
    3.6716   -6.9170    0.0000 C   0  0
    3.6653   -6.0994    0.0000 N   0  0
    4.3703   -5.6851    0.0000 C   0  0
    5.0815   -6.0884    0.0000 C   0  0
    5.7865   -5.6741    0.0000 C   0  0
    6.4977   -6.0775    0.0000 C   0  0
    6.5040   -6.8951    0.0000 C   0  0
    5.7991   -7.3094    0.0000 C   0  0
    5.0878   -6.9061    0.0000 C   0  0
    7.2153   -7.2985    0.0000 O   0  0
    6.8225   -9.3775    0.0000 O   0  0
    6.5639   -8.6018    0.0000 C   0  0
    7.2216   -8.1161    0.0000 C   0  0  2  0  0  0
    7.8868   -8.5916    0.0000 C   0  0
    7.6402   -9.3712    0.0000 C   0  0
    4.3639   -4.8674    0.0000 N   0  0
    3.6527   -4.4641    0.0000 C   0  0
    2.9477   -4.8784    0.0000 C   0  0
    2.2365   -4.4751    0.0000 C   0  0
    2.2302   -3.6574    0.0000 C   0  0
    2.9351   -3.2431    0.0000 C   0  0
    3.6464   -3.6465    0.0000 C   0  0
    1.5189   -3.2541    0.0000 F   0  0
    1.5315   -4.8894    0.0000 Cl  0  0
  1  2  1  0
  2  3  2  0
  2  4  1  0
  5  6  1  0
  8  9  1  0
  7  8  1  0
 10 11  1  0
  7 10  1  0
  6  7  1  0
  4  5  1  0
 12 13  1  0
 13 14  2  0
 14 15  1  0
 15 16  2  0
 16 17  1  0
 17 18  2  0
 18 19  1  0
 19 20  2  0
 20 21  1  0
 12 21  2  0
 16 21  1  0
 23 24  1  0
 24 25  1  0
 25 26  1  0
 26 27  1  0
 23 27  1  0
 25 22  1  1
 19 22  1  0
 29 30  1  0
 30 31  2  0
 31 32  1  0
 32 33  2  0
 33 34  1  0
 29 34  2  0
 32 35  1  0
 31 36  1  0
 28 29  1  0
 15 28  1  0
  1 18  1  0
M  END
> <chembl_id>
CHEMBL3092307

$$$$

  SciTegic08011209522D

 30 33  0  0  0  0            999 V2000
   12.8236   -5.8041    0.0000 N   0  0
   12.8224   -6.6315    0.0000 C   0  0
   13.5372   -7.0444    0.0000 N   0  0
   13.5354   -5.3914    0.0000 C   0  0
   14.2508   -5.8005    0.0000 C   0  0
   14.2542   -6.6336    0.0000 C   0  0
   14.9734   -7.0449    0.0000 N   0  0
   15.6938   -6.6277    0.0000 C   0  0
   15.6904   -5.7946    0.0000 N   0  0
   14.9666   -5.3787    0.0000 C   0  0
   14.9774   -7.8664    0.0000 C   0  0
   14.2624   -8.2803    0.0000 C   0  0
   14.2643   -9.1045    0.0000 C   0  0
   14.9804   -9.5159    0.0000 C   0  0
   15.6961   -9.0970    0.0000 C   0  0
   15.6907   -8.2741    0.0000 C   0  0
   12.1076   -7.0434    0.0000 N   0  0
   12.1070   -7.8684    0.0000 C   0  0
   11.3921   -8.2788    0.0000 C   0  0
   11.3911   -9.1030    0.0000 C   0  0
   12.1057   -9.5169    0.0000 C   0  0
   12.8229   -9.1006    0.0000 C   0  0
   12.8204   -8.2777    0.0000 C   0  0
   16.4094   -7.0382    0.0000 O   0  0
   16.4132   -9.5050    0.0000 N   0  0
   16.4183  -10.3300    0.0000 C   0  0
   17.1354  -10.7380    0.0000 C   0  0
   15.7065  -10.7470    0.0000 O   0  0
   17.1405  -11.5630    0.0000 C   0  0
   16.4036   -5.3799    0.0000 C   0  0
 14 15  1  0
  5  4  2  0
 15 16  2  0
 16 11  1  0
  7 11  1  0
  4  1  1  0
  2 17  1  0
  5 10  1  0
 17 18  1  0
  6  7  1  0
 18 19  2  0
  7  8  1  0
 19 20  1  0
  8  9  1  0
 20 21  2  0
  9 10  1  0
 21 22  1  0
  5  6  1  0
 22 23  2  0
 23 18  1  0
  8 24  2  0
 11 12  2  0
 15 25  1  0
  2  3  1  0
 25 26  1  0
 12 13  1  0
 26 27  1  0
  3  6  2  0
 26 28  2  0
 13 14  2  0
 27 29  2  0
  1  2  2  0
  9 30  1  0
M  END
> <chembl_id>
CHEMBL2029426

$$$$

  SciTegic05061409512D

 24 27  0  0  0  0            999 V2000
   20.8916  -28.5150    0.0000 N   0  0
   21.5968  -28.1106    0.0000 C   0  0
   21.5968  -27.2934    0.0000 N   0  0
   20.8916  -26.8806    0.0000 C   0  0
   20.1863  -28.1106    0.0000 C   0  0
   20.1818  -27.2934    0.0000 C   0  0
   19.4105  -28.3673    0.0000 S   0  0
   18.9265  -27.7089    0.0000 C   0  0
   19.4020  -27.0490    0.0000 C   0  0
   19.0701  -26.3114    0.0000 C   0  0
   18.2617  -26.2274    0.0000 C   0  0
   17.7862  -26.8873    0.0000 N   0  0
   18.1191  -27.6312    0.0000 C   0  0
   20.8927  -26.0634    0.0000 N   0  0
   16.9732  -26.8043    0.0000 C   0  0
   16.6387  -26.0587    0.0000 C   0  0
   16.4949  -27.4668    0.0000 O   0  0
   17.1170  -25.3962    0.0000 C   0  0
   21.6009  -25.6558    0.0000 C   0  0
   22.3073  -26.0669    0.0000 C   0  0
   23.0151  -25.6600    0.0000 C   0  0
   23.0166  -24.8419    0.0000 C   0  0
   22.3045  -24.4325    0.0000 C   0  0
   21.5996  -24.8418    0.0000 C   0  0
  6  4  1  0
  5  1  1  0
  1  2  2  0
  2  3  1  0
  3  4  2  0
  5  6  2  0
  6  9  1  0
  8  7  1  0
  7  5  1  0
  8  9  2  0
  8 13  1  0
  9 10  1  0
 10 11  1  0
 11 12  1  0
 12 13  1  0
  4 14  1  0
 12 15  1  0
 15 16  1  0
 15 17  2  0
 16 18  2  0
 14 19  1  0
 19 20  1  0
 20 21  1  0
 21 22  1  0
 22 23  1  0
 23 24  1  0
 24 19  1  0
M  END
> <chembl_id>
CHEMBL3133900

$$$$

  SciTegic12201615542D

 40 45  0  0  0  0            999 V2000
    1.5297   -7.7799    0.0000 C   0  0
    0.6223   -8.9753    0.0000 C   0  0
    2.7202   -7.9307    0.0000 O   0  0
    0.9491   -6.3959    0.0000 N   0  0
    1.8565   -5.2005    0.0000 C   0  0
    1.2781   -3.8165    0.0000 C   0  0
    2.1852   -2.6281    0.0000 C   0  0
    3.6753   -2.8147    0.0000 C   0  0
    4.2537   -4.1987    0.0000 C   0  0
    3.3443   -5.3916    0.0000 C   0  0
    2.5889    0.0182    0.0000 C   0  0
    1.7138   -1.2033    0.0000 N   0  0
    0.2917   -0.7475    0.0000 C   0  0
    0.2917    0.7475    0.0000 C   0  0
    1.7138    1.2033    0.0000 N   0  0
   -1.0028    1.5132    0.0000 C   0  0
   -2.3155    0.7475    0.0000 C   0  0
   -2.3155   -0.7475    0.0000 C   0  0
   -1.0028   -1.5132    0.0000 C   0  0
    4.0896    0.0290    0.0000 C   0  0
    4.9234    1.2700    0.0000 C   0  0
    4.7453   -1.3220    0.0000 N   0  0
    6.4199    1.1671    0.0000 N   0  0
    7.0791   -0.1803    0.0000 C   0  0
    6.2418   -1.4248    0.0000 C   0  0
    7.2286   -5.1568    0.0000 N   0  0
    8.5770   -4.4998    0.0000 N   0  0
    8.3688   -3.0143    0.0000 C   0  0
    6.9013   -2.7729    0.0000 C   0  0
    6.1870   -4.0774    0.0000 C   0  0
    6.2216   -9.5371    0.0000 N   0  0
    7.6659   -9.1322    0.0000 C   0  0
    8.0374   -7.6789    0.0000 C   0  0
    6.9674   -6.6347    0.0000 C   0  0
    5.5202   -7.0355    0.0000 C   0  0
    5.1488   -8.4888    0.0000 C   0  0
    5.9245  -10.6998    0.0000 C   0  0
    4.3957    2.3477    0.0000 N   0  0
    1.0866  -10.0818    0.0000 C   0  0
   -0.5682   -8.8245    0.0000 C   0  0
  1  2  1  0
  1  3  2  0
  1  4  1  0
  5  6  1  0
  6  7  2  0
  7  8  1  0
  8  9  2  0
  9 10  1  0
  5 10  2  0
 11 12  1  0
 12 13  1  0
 13 14  1  0
 14 15  1  0
 11 15  2  0
 16 17  1  0
 17 18  2  0
 18 19  1  0
 13 19  2  0
 14 16  2  0
 20 21  1  0
 20 22  2  0
 21 23  2  0
 23 24  1  0
 24 25  2  0
 22 25  1  0
 26 27  1  0
 27 28  2  0
 28 29  1  0
 29 30  2  0
 26 30  1  0
 31 32  1  0
 32 33  1  0
 33 34  1  0
 34 35  1  0
 35 36  1  0
 31 36  1  0
 31 37  1  0
 26 34  1  0
 25 29  1  0
 21 38  1  0
 11 20  1  0
  7 12  1  0
  4  5  1  0
  2 39  2  0
  2 40  1  0
M  END
> <chembl_id>
CHEMBL3814150

$$$$

  SciTegic01161211252D

 37 40  0  0  0  0            999 V2000
   -2.0348    3.0292    0.0000 C   0  0
   -2.0359    2.2018    0.0000 C   0  0
   -1.3211    1.7890    0.0000 C   0  0
   -0.6047    2.2023    0.0000 C   0  0
   -0.6075    3.0328    0.0000 C   0  0
   -1.3229    3.4420    0.0000 C   0  0
   -2.7493    3.4415    0.0000 C   0  0
    0.1105    1.7909    0.0000 C   0  0
    0.1117    0.9659    0.0000 O   0  0
    0.8243    2.2046    0.0000 N   0  0
    1.5394    1.7932    0.0000 C   0  0
    1.5360    0.9697    0.0000 C   0  0
    2.2503    0.5584    0.0000 C   0  0
    2.9651    0.9721    0.0000 C   0  0
    2.9611    1.8014    0.0000 C   0  0
    2.2463    2.2090    0.0000 C   0  0
    3.6735    2.2175    0.0000 C   0  0
    4.3901    1.8087    0.0000 F   0  0
    3.6693    3.0425    0.0000 F   0  0
    4.3833    2.6375    0.0000 F   0  0
    3.6808    0.5617    0.0000 C   0  0
    3.6832   -0.2633    0.0000 N   0  0
    2.9666   -0.6724    0.0000 C   0  0
    2.9670   -1.4938    0.0000 C   0  0
    3.6809   -1.9081    0.0000 N   0  0
    4.3960   -1.4948    0.0000 C   0  0
    4.3972   -0.6671    0.0000 C   0  0
    3.6802   -2.7331    0.0000 C   0  0
    4.3943   -3.1462    0.0000 C   0  0
   -2.7507    1.7899    0.0000 C   0  0
   -3.4708    1.3833    0.0000 C   0  0
   -4.1875    0.9750    0.0000 C   0  0
   -4.8990    1.3944    0.0000 C   0  0
   -5.6152    0.9868    0.0000 C   0  0
   -5.6203    0.1611    0.0000 C   0  0
   -4.9033   -0.2553    0.0000 N   0  0
   -4.1901    0.1548    0.0000 C   0  0
 17 18  1  0
  8  9  2  0
 17 19  1  0
  4  5  1  0
 17 20  1  0
  8 10  1  0
 14 21  1  0
  2  3  1  0
 21 22  1  0
 22 23  1  0
 10 11  1  0
  5  6  2  0
 11 12  2  0
  6  1  1  0
 12 13  1  0
 22 27  1  0
 23 24  1  0
 24 25  1  0
 25 26  1  0
 26 27  1  0
  1  2  2  0
 25 28  1  0
 13 14  2  0
 28 29  1  0
  1  7  1  0
  2 30  1  0
 14 15  1  0
 30 31  3  0
  3  4  2  0
 31 32  1  0
 15 16  2  0
 32 33  2  0
 16 11  1  0
 33 34  1  0
  4  8  1  0
 34 35  2  0
 15 17  1  0
 35 36  1  0
 36 37  2  0
 37 32  1  0
M  END
> <chembl_id>
CHEMBL1171523

$$$$

  SciTegic05221516342D

 31 34  0  0  0  0            999 V2000
   11.6993  -15.1840    0.0000 C   0  0
   11.6981  -16.0036    0.0000 N   0  0
   12.4062  -16.4125    0.0000 C   0  0
   13.1158  -16.0031    0.0000 N   0  0
   13.1130  -15.1804    0.0000 C   0  0
   12.4044  -14.7752    0.0000 C   0  0
   13.8192  -14.7692    0.0000 N   0  0
   14.5284  -15.1751    0.0000 C   0  0
   14.5282  -15.9900    0.0000 C   0  0
   15.2366  -16.3958    0.0000 C   0  0
   15.9437  -15.9845    0.0000 C   0  0
   15.9380  -15.1631    0.0000 C   0  0
   15.2290  -14.7609    0.0000 N   0  0
   15.2393  -17.2130    0.0000 N   0  0
   15.9483  -17.6193    0.0000 C   0  0
   15.9510  -18.4365    0.0000 C   0  0
   16.6547  -17.2084    0.0000 O   0  0
   15.2428  -18.8461    0.0000 C   0  0
   15.2451  -19.6625    0.0000 C   0  0
   15.9547  -20.0696    0.0000 C   0  0
   16.6634  -19.6543    0.0000 C   0  0
   16.6576  -18.8392    0.0000 C   0  0
   14.5343  -18.4388    0.0000 Cl  0  0
   17.3627  -18.4262    0.0000 Cl  0  0
   12.4060  -17.2297    0.0000 N   0  0
   11.6969  -17.6320    0.0000 C   0  0
   11.6948  -18.4456    0.0000 C   0  0
   12.4006  -18.8582    0.0000 C   0  0
   13.1102  -18.4510    0.0000 C   0  0
   13.1140  -17.6312    0.0000 C   0  0
   12.3973  -19.6754    0.0000 O   0  0
  1  2  2  0
  2  3  1  0
  3  4  2  0
  4  5  1  0
  5  6  2  0
  6  1  1  0
  5  7  1  0
  7  8  1  0
  8  9  2  0
  9 10  1  0
 10 11  2  0
 11 12  1  0
 12 13  2  0
 13  8  1  0
 10 14  1  0
 14 15  1  0
 15 16  1  0
 15 17  2  0
 16 18  2  0
 18 19  1  0
 19 20  2  0
 20 21  1  0
 21 22  2  0
 22 16  1  0
 18 23  1  0
 22 24  1  0
  3 25  1  0
 25 26  1  0
 25 30  1  0
 26 27  1  0
 27 28  1  0
 28 29  1  0
 29 30  1  0
 28 31  1  0
M  END
> <chembl_id>
CHEMBL3354184

$$$$

  SciTegic12171313052D

 35 38  0  0  0  0            999 V2000
    7.6752  -16.9010    0.0000 C   0  0
    7.6741  -17.7205    0.0000 C   0  0
    8.3821  -18.1295    0.0000 C   0  0
    9.0918  -17.7200    0.0000 C   0  0
    9.0890  -16.8974    0.0000 C   0  0
    8.3803  -16.4921    0.0000 C   0  0
    8.3779  -15.6749    0.0000 N   0  0
    9.0844  -15.2642    0.0000 C   0  0
    9.7948  -15.6751    0.0000 N   0  0
    9.7849  -14.0407    0.0000 C   0  0
    9.0818  -14.4531    0.0000 N   0  0
   10.4988  -14.4470    0.0000 C   0  0
   10.4996  -15.2668    0.0000 C   0  0
   11.2059  -15.6737    0.0000 N   0  0
   11.9161  -15.2654    0.0000 C   0  0
   11.9153  -14.4457    0.0000 C   0  0
   11.2044  -14.0342    0.0000 N   0  0
   11.2071  -16.4882    0.0000 C   0  0
   10.4976  -16.8959    0.0000 C   0  0
   10.4969  -17.7123    0.0000 C   0  0
   11.2050  -18.1220    0.0000 C   0  0
   11.9152  -17.7093    0.0000 C   0  0
   11.9124  -16.8943    0.0000 C   0  0
   12.6236  -15.6743    0.0000 O   0  0
    8.3819  -18.9467    0.0000 O   0  0
    7.6741  -19.3551    0.0000 C   0  0
   11.2057  -18.9392    0.0000 N   0  0
   11.9138  -19.3472    0.0000 C   0  0
   11.9145  -20.1644    0.0000 O   0  0
   12.6211  -18.9379    0.0000 C   0  0
   13.3292  -19.3459    0.0000 C   0  0
   14.0365  -18.9367    0.0000 C   0  0
   14.7446  -19.3446    0.0000 N   0  0
   15.4519  -18.9354    0.0000 C   0  0
   14.7453  -20.1618    0.0000 C   0  0
  1  2  2  0
  2  3  1  0
  3  4  2  0
  4  5  1  0
  5  6  2  0
  6  1  1  0
  6  7  1  0
  7  8  1  0
  8  9  2  0
  9 13  1  0
 12 10  1  0
 10 11  2  0
 11  8  1  0
 12 13  2  0
 12 17  1  0
 13 14  1  0
 14 15  1  0
 15 16  1  0
 16 17  2  0
 18 19  2  0
 19 20  1  0
 20 21  2  0
 21 22  1  0
 22 23  2  0
 23 18  1  0
 14 18  1  0
 15 24  2  0
  3 25  1  0
 25 26  1  0
 21 27  1  0
 27 28  1  0
 28 29  2  0
 28 30  1  0
 30 31  2  0
 31 32  1  0
 32 33  1  0
 33 34  1  0
 33 35  1  0
M  END
> <chembl_id>
CHEMBL2437483

$$$$

  SciTegic09261414462D

 31 34  0  0  0  0            999 V2000
   31.0819  -10.7128    0.0000 N   0  0
   31.7915  -10.3034    0.0000 C   0  0
   31.7887   -9.4807    0.0000 N   0  0
   31.0801   -9.0755    0.0000 C   0  0
   30.3738  -10.3039    0.0000 C   0  0
   30.3751   -9.4873    0.0000 C   0  0
   29.5989   -9.2338    0.0000 C   0  0
   29.1179   -9.8937    0.0000 C   0  0
   29.5969  -10.5550    0.0000 S   0  0
   31.0763   -8.2583    0.0000 N   0  0
   31.7822   -7.8464    0.0000 C   0  0
   32.4896   -8.2566    0.0000 C   0  0
   33.1949   -7.8454    0.0000 C   0  0
   33.1916   -7.0273    0.0000 C   0  0
   32.4770   -6.6222    0.0000 C   0  0
   31.7746   -7.0357    0.0000 C   0  0
   28.3007   -9.8925    0.0000 N   0  0
   27.8931   -9.1842    0.0000 C   0  0
   27.0759   -9.1831    0.0000 C   0  0
   28.3027   -8.4771    0.0000 O   0  0
   33.8968   -6.6146    0.0000 F   0  0
   33.9043   -8.2511    0.0000 Cl  0  0
   26.6684   -8.4748    0.0000 C   0  0
   25.8512   -8.4736    0.0000 C   0  0
   25.4436   -7.7653    0.0000 N   0  0
   25.7736   -7.0218    0.0000 C   0  0
   25.1671   -6.4741    0.0000 C   0  0
   24.4587   -6.8817    0.0000 C   0  0
   24.6276   -7.6812    0.0000 C   0  0
   24.7510   -5.7616    0.0000 F   0  0
   25.5682   -5.7616    0.0000 F   0  0
  5  1  1  0
  1  2  2  0
  2  3  1  0
  3  4  2  0
  4  6  1  0
  5  6  2  0
  6  7  1  0
  7  8  2  0
  8  9  1  0
  9  5  1  0
  4 10  1  0
 10 11  1  0
 11 12  2  0
 12 13  1  0
 13 14  2  0
 14 15  1  0
 15 16  2  0
 16 11  1  0
  8 17  1  0
 17 18  1  0
 18 19  1  0
 18 20  2  0
 14 21  1  0
 13 22  1  0
 19 23  2  0
 23 24  1  0
 24 25  1  0
 25 26  1  0
 26 27  1  0
 27 28  1  0
 28 29  1  0
 29 25  1  0
 27 30  1  0
 27 31  1  0
M  END
> <chembl_id>
CHEMBL3233783

$$$$

  SciTegic10311316212D

 49 54  0  0  0  0            999 V2000
    1.8119   -1.6550    0.0000 O   0  0
    2.0265   -2.4474    0.0000 S   0  0
    2.6054   -1.8654    0.0000 O   0  0
   -5.7767   -2.6620    0.0000 C   0  0
   -5.7756   -3.4816    0.0000 C   0  0
   -5.0721   -3.8905    0.0000 C   0  0
   -4.3620   -3.4811    0.0000 C   0  0
   -4.3592   -2.6584    0.0000 C   0  0
   -5.0703   -2.2532    0.0000 C   0  0
   -6.4849   -2.2492    0.0000 N   0  0
   -6.4866   -1.4311    0.0000 C   0  0
   -7.1862   -1.0227    0.0000 C   0  0
   -7.8959   -1.4280    0.0000 N   0  0
   -7.9024   -2.2462    0.0000 C   0  0
   -7.1909   -2.6590    0.0000 C   0  0
   -5.0719   -4.7077    0.0000 O   0  0
   -5.7756   -5.1161    0.0000 C   0  0
   -3.6506   -3.8886    0.0000 N   0  0
   -2.9461   -3.4789    0.0000 C   0  0
   -2.2396   -3.8868    0.0000 N   0  0
   -1.5347   -3.4778    0.0000 C   0  0
   -1.5339   -2.6597    0.0000 C   0  0
   -2.2486   -2.2524    0.0000 C   0  0
   -2.9482   -2.6638    0.0000 N   0  0
   -2.2526   -1.4352    0.0000 O   0  0
   -1.5468   -1.0230    0.0000 C   0  0
   -0.8420   -1.4283    0.0000 C   0  0
   -0.1356   -1.0168    0.0000 C   0  0
   -0.1401   -0.1987    0.0000 C   0  0
   -0.8534    0.2067    0.0000 C   0  0
   -1.5544   -0.2078    0.0000 C   0  0
   -0.8289   -2.2491    0.0000 Cl  0  0
   -8.6012   -1.0169    0.0000 C   0  0
    0.5728    0.2148    0.0000 C   0  0
    1.2831   -0.1896    0.0000 C   0  0
    1.2883   -1.0068    0.0000 C   0  0
    0.5833   -1.4199    0.0000 O   0  0
    0.5885   -2.2371    0.0000 C   0  0
   -0.0705   -2.7165    0.0000 N   0  0
    0.1877   -3.4921    0.0000 O   0  0
    1.0049   -3.4869    0.0000 N   0  3
    1.2523   -2.7080    0.0000 C   0  0
    1.4895   -4.1448    0.0000 O   0  5
    2.6393   -2.9900    0.0000 C   0  0
    2.4720   -3.7891    0.0000 C   0  0
    3.0834   -4.3302    0.0000 C   0  0
    3.8593   -4.0709    0.0000 C   0  0
    4.0203   -3.2654    0.0000 C   0  0
    3.4076   -2.7278    0.0000 C   0  0
  2  1  2  0
  3  2  2  0
  4  5  2  0
  5  6  1  0
  6  7  2  0
  7  8  1  0
  8  9  2  0
  9  4  1  0
 10 11  1  0
 10 15  1  0
 11 12  1  0
 12 13  1  0
 13 14  1  0
 14 15  1  0
  4 10  1  0
  6 16  1  0
 16 17  1  0
  7 18  1  0
 18 19  1  0
 19 20  2  0
 20 21  1  0
 21 22  2  0
 22 23  1  0
 23 24  2  0
 24 19  1  0
 23 25  1  0
 25 26  1  0
 26 27  2  0
 27 28  1  0
 28 29  2  0
 29 30  1  0
 30 31  2  0
 31 26  1  0
 22 32  1  0
 13 33  1  0
 29 34  1  0
 34 35  1  0
 35 36  1  0
 36 37  1  0
 37 38  1  0
 38 39  2  0
 39 40  1  0
 40 41  1  0
 41 42  2  0
 42 38  1  0
 41 43  1  0
 42  2  1  0
  2 44  1  0
 44 45  2  0
 45 46  1  0
 46 47  2  0
 47 48  1  0
 48 49  2  0
 49 44  1  0
M  CHG  2  41   1  43  -1
M  END
> <chembl_id>
CHEMBL2408823

$$$$

  SciTegic12201615542D

 35 39  0  0  0  0            999 V2000
    1.4499    7.7742    0.0000 C   0  0
    0.5265    8.9573    0.0000 C   0  0
    0.9759   10.0700    0.0000 C   0  0
    2.6383    7.9411    0.0000 O   0  0
    0.8879    6.3826    0.0000 N   0  0
    1.8114    5.1995    0.0000 C   0  0
    1.2517    3.8078    0.0000 C   0  0
    2.1749    2.6315    0.0000 C   0  0
    3.6621    2.8384    0.0000 C   0  0
    4.2218    4.2301    0.0000 C   0  0
    3.2965    5.4106    0.0000 C   0  0
   -1.0028   -1.5132    0.0000 C   0  0
    0.2917   -0.7475    0.0000 C   0  0
    0.2917    0.7475    0.0000 C   0  0
   -1.0028    1.5132    0.0000 C   0  0
   -2.3155    0.7475    0.0000 C   0  0
   -2.3155   -0.7475    0.0000 C   0  0
    2.5889    0.0182    0.0000 C   0  0
    1.7138   -1.2033    0.0000 N   0  0
    1.7138    1.2033    0.0000 N   0  0
    4.0896    0.0290    0.0000 C   0  0
    4.9234    1.2700    0.0000 C   0  0
    4.7453   -1.3220    0.0000 N   0  0
    6.4199    1.1671    0.0000 N   0  0
    7.0791   -0.1803    0.0000 C   0  0
    6.2418   -1.4248    0.0000 C   0  0
    7.2286   -5.1568    0.0000 N   0  0
    8.5770   -4.4998    0.0000 N   0  0
    8.3688   -3.0143    0.0000 C   0  0
    6.9013   -2.7729    0.0000 C   0  0
    6.1870   -4.0774    0.0000 C   0  0
    6.9648   -6.6317    0.0000 C   0  0
    4.3957    2.3477    0.0000 N   0  0
    5.5535   -7.1424    0.0000 C   0  0
    5.3423   -8.3237    0.0000 O   0  0
  1  2  1  0
  2  3  2  0
  1  4  2  0
  1  5  1  0
  6  7  1  0
  7  8  2  0
  8  9  1  0
  9 10  2  0
 10 11  1  0
  6 11  2  0
 12 13  1  0
 13 14  2  0
 14 15  1  0
 15 16  2  0
 16 17  1  0
 12 17  2  0
 18 19  2  0
 18 20  1  0
 13 19  1  0
 14 20  1  0
 21 22  1  0
 21 23  2  0
 22 24  2  0
 24 25  1  0
 25 26  2  0
 23 26  1  0
 27 28  1  0
 28 29  2  0
 29 30  1  0
 30 31  2  0
 27 31  1  0
 27 32  1  0
 26 30  1  0
 22 33  1  0
 18 21  1  0
  8 20  1  0
  5  6  1  0
 32 34  1  0
 34 35  1  0
M  END
> <chembl_id>
CHEMBL3813817

$$$$

  SciTegic12091611192D

 30 33  0  0  0  0            999 V2000
   -3.6217    1.4865    0.0000 N   0  0
   -7.5133    0.6990    0.0000 C   0  0
   -6.2219    1.4621    0.0000 N   0  0
   -4.9153    0.7255    0.0000 C   0  0
   -4.9001   -0.7745    0.0000 C   0  0
   -6.1914   -1.5377    0.0000 C   0  0
   -7.4980   -0.8010    0.0000 N   0  0
   -8.8205    1.4361    0.0000 N   0  0
   -8.8383    2.9360    0.0000 C   0  0
  -10.1461    3.6707    0.0000 C   0  0
  -11.4362    2.9055    0.0000 C   0  0
  -11.4185    1.4056    0.0000 C   0  0
  -10.1108    0.6709    0.0000 C   0  0
   -1.0028   -1.5132    0.0000 C   0  0
    0.2917   -0.7475    0.0000 C   0  0
    0.2917    0.7475    0.0000 C   0  0
   -1.0028    1.5132    0.0000 C   0  0
   -2.3155    0.7475    0.0000 C   0  0
   -2.3155   -0.7475    0.0000 N   0  0
    2.5889    0.0182    0.0000 C   0  0
    1.7138   -1.2033    0.0000 N   0  0
    1.7138    1.2033    0.0000 N   0  0
    3.7889    0.0269    0.0000 C   0  0
    2.1812    2.6271    0.0000 C   0  0
    3.3556    2.8737    0.0000 C   0  0
    1.3808    3.5211    0.0000 C   0  0
  -11.4171    4.3858    0.0000 O   0  0
  -12.6909    2.1190    0.0000 C   0  0
  -10.3853    4.9984    0.0000 C   0  0
  -13.7375    2.7060    0.0000 O   0  0
  2  3  1  0
  3  4  2  0
  4  5  1  0
  5  6  2  0
  6  7  1  0
  2  7  2  0
  8  9  1  0
  9 10  1  0
 10 11  1  0
 11 12  1  0
 12 13  1  0
  8 13  1  0
  2  8  1  0
  1  4  1  0
 14 15  1  0
 15 16  2  0
 16 17  1  0
 17 18  2  0
 18 19  1  0
 14 19  2  0
 20 21  2  0
 20 22  1  0
 15 21  1  0
 16 22  1  0
  1 18  1  0
 20 23  1  0
 22 24  1  0
 24 25  1  0
 24 26  1  0
 11 27  1  0
 11 28  1  0
 27 29  1  0
 28 30  1  0
M  END
> <chembl_id>
CHEMBL3736395

$$$$

  SciTegic10311316262D

 57 62  0  0  0  0            999 V2000
    3.1656  -24.0948    0.0000 O   0  0
    2.3484  -24.0948    0.0000 S   0  0
    2.7570  -24.8025    0.0000 O   0  0
    7.9972  -28.2715    0.0000 C   0  0
    7.9960  -29.0910    0.0000 C   0  0
    8.7041  -29.5000    0.0000 C   0  0
    9.4137  -29.0905    0.0000 C   0  0
    9.4109  -28.2679    0.0000 C   0  0
    8.7023  -27.8626    0.0000 C   0  0
    7.2901  -27.8587    0.0000 N   0  0
    7.2918  -27.0405    0.0000 C   0  0
    6.5881  -26.6322    0.0000 C   0  0
    5.8781  -27.0375    0.0000 N   0  0
    5.8763  -27.8556    0.0000 C   0  0
    6.5846  -28.2685    0.0000 C   0  0
    5.1718  -26.6264    0.0000 C   0  0
    8.7039  -30.3172    0.0000 O   0  0
    7.9960  -30.7256    0.0000 C   0  0
   10.1221  -29.4980    0.0000 N   0  0
   10.8291  -29.0883    0.0000 C   0  0
   11.5341  -29.4962    0.0000 N   0  0
   12.2407  -29.0872    0.0000 C   0  0
   12.2399  -28.2692    0.0000 C   0  0
   11.5266  -27.8618    0.0000 C   0  0
   10.8229  -28.2732    0.0000 N   0  0
   12.9464  -27.8585    0.0000 Cl  0  0
   11.5224  -27.0447    0.0000 O   0  0
   12.2280  -26.6325    0.0000 C   0  0
   12.9383  -27.0398    0.0000 C   0  0
   13.6434  -26.6283    0.0000 C   0  0
   13.6397  -25.8102    0.0000 C   0  0
   12.9250  -25.4054    0.0000 C   0  0
   12.2228  -25.8193    0.0000 C   0  0
   14.3530  -27.0336    0.0000 N   0  0
   15.0588  -26.6218    0.0000 C   0  0
   15.7684  -27.0271    0.0000 C   0  0
   15.0551  -25.8046    0.0000 O   0  0
   16.4743  -26.6152    0.0000 C   0  0
    5.1747  -25.8092    0.0000 C   0  0
    4.4685  -25.3981    0.0000 N   0  0
    5.8839  -25.4031    0.0000 O   0  0
    3.7593  -25.8042    0.0000 C   0  0
    3.0531  -25.3931    0.0000 C   0  0
    2.3436  -25.7994    0.0000 O   0  0
    1.6708  -25.3356    0.0000 C   0  0
    1.6486  -24.5181    0.0000 C   0  0
    0.8657  -24.2847    0.0000 N   0  3
    0.4018  -24.9575    0.0000 O   0  0
    0.8985  -25.6064    0.0000 N   0  0
    2.3337  -23.2795    0.0000 C   0  0
    3.0354  -22.8624    0.0000 C   0  0
    3.0208  -22.0461    0.0000 C   0  0
    2.3052  -21.6497    0.0000 C   0  0
    1.6028  -22.0757    0.0000 C   0  0
    1.6209  -22.8905    0.0000 C   0  0
    3.4545  -24.6808    0.0000 C   0  0
    0.8585  -23.4674    0.0000 O   0  5
  2  1  2  0
  3  2  2  0
  4  5  2  0
  5  6  1  0
  6  7  2  0
  7  8  1  0
  8  9  2  0
  9  4  1  0
 10 11  1  0
 10 15  1  0
 11 12  1  0
 12 13  1  0
 13 14  1  0
 14 15  1  0
  4 10  1  0
 13 16  1  0
  6 17  1  0
 17 18  1  0
  7 19  1  0
 19 20  1  0
 20 21  2  0
 21 22  1  0
 22 23  2  0
 23 24  1  0
 24 25  2  0
 25 20  1  0
 23 26  1  0
 24 27  1  0
 27 28  1  0
 28 29  2  0
 29 30  1  0
 30 31  2  0
 31 32  1  0
 32 33  2  0
 33 28  1  0
 30 34  1  0
 34 35  1  0
 35 36  1  0
 35 37  2  0
 36 38  2  0
 16 39  1  0
 39 40  1  0
 39 41  2  0
 40 42  1  0
 42 43  1  0
 43 44  1  0
 44 45  1  0
 45 46  1  0
 46 47  2  0
 47 48  1  0
 48 49  1  0
 49 45  2  0
 46  2  1  0
  2 50  1  0
 50 51  2  0
 51 52  1  0
 52 53  2  0
 53 54  1  0
 54 55  2  0
 55 50  1  0
 43 56  1  0
 47 57  1  0
M  CHG  2  47   1  57  -1
M  END
> <chembl_id>
CHEMBL2381505

$$$$

  SciTegic12131613492D

 30 34  0  0  0  0            999 V2000
    0.8955    2.0810    0.0000 C   0  0
    1.7138    1.2033    0.0000 C   0  0
    2.8908    1.4370    0.0000 C   0  0
   -1.0028    1.5132    0.0000 N   0  0
   -2.3155    0.7475    0.0000 C   0  0
   -2.3155   -0.7475    0.0000 N   0  0
   -1.0028   -1.5132    0.0000 C   0  0
    0.2917    0.7475    0.0000 C   0  0
    0.2917   -0.7475    0.0000 C   0  0
    1.7138   -1.2033    0.0000 C   0  0
    2.5889    0.0182    0.0000 O   0  0
   -3.6168    1.4950    0.0000 C   0  0
   -4.9669    0.8708    0.0000 C   0  0
   -5.9732    1.9832    0.0000 N   0  0
   -5.2262    3.2840    0.0000 N   0  0
   -3.7582    2.9755    0.0000 C   0  0
   -0.9971   -3.0138    0.0000 N   0  0
   -2.2935   -3.7700    0.0000 C   0  0
   -4.6304   -4.2656    0.0000 N   0  0
   -3.6203   -3.1531    0.0000 N   0  0
   -3.8857   -5.5600    0.0000 C   0  0
   -2.4241   -5.2456    0.0000 C   0  0
   -1.4032   -6.3500    0.0000 C   0  0
   -1.8757   -7.7944    0.0000 C   0  0
   -3.3373   -8.1089    0.0000 C   0  0
   -4.3620   -6.9866    0.0000 C   0  0
   -5.2669   -0.5970    0.0000 C   0  0
   -6.4049   -0.9776    0.0000 F   0  0
   -4.3685   -1.3926    0.0000 F   0  0
   -5.5359   -7.2354    0.0000 Cl  0  0
  2  1  1  0
  3  2  1  0
  8  4  1  0
  4  5  2  0
  5  6  1  0
  6  7  2  0
  7  9  1  0
  8  9  2  0
  9 10  1  0
 10 11  1  0
 11  2  1  0
  2  8  1  0
  5 12  1  0
 12 13  2  0
 13 14  1  0
 14 15  1  0
 15 16  2  0
 16 12  1  0
  7 17  1  0
 17 18  1  0
 18 22  1  0
 21 19  1  0
 19 20  1  0
 20 18  2  0
 21 22  2  0
 22 23  1  0
 23 24  2  0
 24 25  1  0
 25 26  2  0
 26 21  1  0
 13 27  1  0
 27 28  1  0
 27 29  1  0
 26 30  1  0
M  END
> <chembl_id>
CHEMBL3758739

$$$$

  SciTegic04091414352D

 36 40  0  0  0  0            999 V2000
   13.4344   -8.5544    0.0000 N   0  0
   13.4269   -7.7368    0.0000 C   0  0
   14.1313   -7.3215    0.0000 C   0  0
   14.8431   -7.7238    0.0000 C   0  0
   14.8506   -8.5414    0.0000 C   0  0
   14.1463   -8.9567    0.0000 C   0  0
   12.7301   -8.9697    0.0000 C   0  0
   12.7376   -9.7874    0.0000 O   0  0
   12.0183   -8.5674    0.0000 N   0  0
   14.6511   -6.6903    0.0000 F   0  0
   13.6000   -6.7000    0.0000 F   0  0
    9.2009  -10.2287    0.0000 N   0  0
    8.4891   -9.8264    0.0000 C   0  0
    8.4816   -9.0088    0.0000 N   0  0
    9.1859   -8.5934    0.0000 C   0  0
    9.8977   -8.9957    0.0000 C   0  0
   10.6021   -8.5804    0.0000 C   0  0
   11.3139   -8.9827    0.0000 C   0  0
   11.3214   -9.8004    0.0000 C   0  0
   10.6171  -10.2157    0.0000 C   0  0
    9.9053   -9.8134    0.0000 C   0  0
   12.0333  -10.2027    0.0000 O   0  0
   11.6435  -12.2823    0.0000 O   0  0
   11.3837  -11.5070    0.0000 C   0  0
   12.0408  -11.0203    0.0000 C   0  0  2  0  0  0
   12.7067  -11.4948    0.0000 C   0  0
   12.4612  -12.2748    0.0000 C   0  0
    9.1784   -7.7758    0.0000 N   0  0
    8.4665   -7.3735    0.0000 C   0  0
    7.7622   -7.7888    0.0000 C   0  0
    7.0504   -7.3865    0.0000 C   0  0
    7.0429   -6.5689    0.0000 C   0  0
    7.7472   -6.1535    0.0000 C   0  0
    8.4590   -6.5559    0.0000 C   0  0
    6.3310   -6.1665    0.0000 F   0  0
    6.3460   -7.8018    0.0000 Cl  0  0
  1  2  1  0
  2  3  1  0
  3  4  1  0
  4  5  1  0
  5  6  1  0
  1  6  1  0
  7  8  2  0
  7  9  1  0
  1  7  1  0
  3 10  1  0
  3 11  1  0
 12 13  1  0
 13 14  2  0
 14 15  1  0
 15 16  2  0
 16 17  1  0
 17 18  2  0
 18 19  1  0
 19 20  2  0
 20 21  1  0
 12 21  2  0
 16 21  1  0
 23 24  1  0
 24 25  1  0
 25 26  1  0
 26 27  1  0
 23 27  1  0
 25 22  1  1
 19 22  1  0
 29 30  1  0
 30 31  2  0
 31 32  1  0
 32 33  2  0
 33 34  1  0
 29 34  2  0
 32 35  1  0
 31 36  1  0
 28 29  1  0
 15 28  1  0
  9 18  1  0
M  END
> <chembl_id>
CHEMBL3092299

$$$$

  SciTegic12201615542D

 44 49  0  0  0  0            999 V2000
    1.4499    7.7742    0.0000 C   0  0
    0.5265    8.9573    0.0000 C   0  0
    0.9759   10.0700    0.0000 C   0  0
    2.6383    7.9411    0.0000 O   0  0
    0.8879    6.3826    0.0000 N   0  0
    1.8114    5.1995    0.0000 C   0  0
    1.2517    3.8078    0.0000 C   0  0
    2.1749    2.6315    0.0000 C   0  0
    3.6621    2.8384    0.0000 C   0  0
    4.2218    4.2301    0.0000 C   0  0
    3.2965    5.4106    0.0000 C   0  0
   -1.0028   -1.5132    0.0000 C   0  0
    0.2917   -0.7475    0.0000 C   0  0
    0.2917    0.7475    0.0000 C   0  0
   -1.0028    1.5132    0.0000 C   0  0
   -2.3155    0.7475    0.0000 C   0  0
   -2.3155   -0.7475    0.0000 C   0  0
    2.5889    0.0182    0.0000 C   0  0
    1.7138   -1.2033    0.0000 N   0  0
    1.7138    1.2033    0.0000 N   0  0
    4.0896    0.0290    0.0000 C   0  0
    4.9234    1.2700    0.0000 C   0  0
    4.7453   -1.3220    0.0000 N   0  0
    6.4199    1.1671    0.0000 N   0  0
    7.0791   -0.1803    0.0000 C   0  0
    6.2418   -1.4248    0.0000 C   0  0
    7.2286   -5.1568    0.0000 N   0  0
    8.5770   -4.4998    0.0000 N   0  0
    8.3688   -3.0143    0.0000 C   0  0
    6.9013   -2.7729    0.0000 C   0  0
    6.1870   -4.0774    0.0000 C   0  0
    6.9674   -6.6347    0.0000 C   0  0
    4.3957    2.3477    0.0000 N   0  0
    8.0374   -7.6789    0.0000 C   0  0
    7.6659   -9.1322    0.0000 C   0  0
    6.2216   -9.5371    0.0000 N   0  0
    5.1488   -8.4888    0.0000 C   0  0
    5.5202   -7.0355    0.0000 C   0  0
    5.8470  -10.9905    0.0000 C   0  0
    6.7038  -11.8306    0.0000 O   0  0
    4.4013  -11.3936    0.0000 C   0  0
    4.0267  -12.8469    0.0000 N   0  0
    2.8708  -13.1692    0.0000 C   0  0
    4.8835  -13.6871    0.0000 C   0  0
  1  2  1  0
  2  3  2  0
  1  4  2  0
  1  5  1  0
  6  7  1  0
  7  8  2  0
  8  9  1  0
  9 10  2  0
 10 11  1  0
  6 11  2  0
 12 13  1  0
 13 14  2  0
 14 15  1  0
 15 16  2  0
 16 17  1  0
 12 17  2  0
 18 19  2  0
 18 20  1  0
 13 19  1  0
 14 20  1  0
 21 22  1  0
 21 23  2  0
 22 24  2  0
 24 25  1  0
 25 26  2  0
 23 26  1  0
 27 28  1  0
 28 29  2  0
 29 30  1  0
 30 31  2  0
 27 31  1  0
 27 32  1  0
 26 30  1  0
 22 33  1  0
 18 21  1  0
  8 20  1  0
  5  6  1  0
 32 34  1  0
 32 38  1  0
 34 35  1  0
 35 36  1  0
 36 37  1  0
 37 38  1  0
 36 39  1  0
 39 40  2  0
 39 41  1  0
 41 42  1  0
 42 43  1  0
 42 44  1  0
M  END
> <chembl_id>
CHEMBL3814756

$$$$

  SciTegic09081514162D

 40 43  0  0  0  0            999 V2000
    1.2990   -0.7500    0.0000 N   0  0
    1.2990    0.7500    0.0000 C   0  0
    0.0000    1.5000    0.0000 N   0  0
   -1.2990    0.7500    0.0000 C   0  0
   -1.2990   -0.7500    0.0000 C   0  0
    0.0000   -1.5000    0.0000 C   0  0
   -2.5973    1.5031    0.0000 O   0  0
    2.5972    1.5031    0.0000 N   0  0
    2.5951    3.0039    0.0000 C   0  0
   -3.8990    0.7562    0.0000 C   0  0
   -5.1976    1.5069    0.0000 C   0  0
   -6.4972    0.7578    0.0000 C   0  0
   -6.4981   -0.7422    0.0000 C   0  0
   -5.1996   -1.4931    0.0000 C   0  0
   -3.9001   -0.7439    0.0000 C   0  0
    3.8915    3.7585    0.0000 C   0  0
    3.8863    5.2585    0.0000 C   0  0
    2.5847    6.0040    0.0000 C   0  0
    1.2883    5.2495    0.0000 C   0  0
    1.2934    3.7495    0.0000 C   0  0
    2.5795    7.5047    0.0000 N   0  0
    3.8747    8.2614    0.0000 C   0  0
    3.8671    9.7614    0.0000 C   0  0
    2.5643   10.5048    0.0000 N   0  0
    1.2691    9.7483    0.0000 C   0  0
    1.2767    8.2483    0.0000 C   0  0
   -2.3383   -1.3500    0.0000 Cl  0  0
   -5.1975   -2.9939    0.0000 N   0  0
   -3.8972   -3.7433    0.0000 C   0  0
   -3.8950   -5.2441    0.0000 C   0  0
   -2.8586   -3.1422    0.0000 O   0  0
   -2.5947   -5.9935    0.0000 C   0  0
    2.5583   11.7048    0.0000 C   0  0
    5.1954    3.0153    0.0000 O   0  0
    6.2317    3.6204    0.0000 C   0  0
   -5.1940   -5.9960    0.0000 C   0  0
   -6.2326   -6.5971    0.0000 N   0  0
   -2.5926   -7.4944    0.0000 C   0  0
   -1.5529   -8.0936    0.0000 C   0  0
   -3.6312   -8.0955    0.0000 C   0  0
  1  2  2  0
  2  3  1  0
  3  4  2  0
  4  5  1  0
  5  6  2  0
  6  1  1  0
  4  7  1  0
  2  8  1  0
  8  9  1  0
  7 10  1  0
 10 11  2  0
 11 12  1  0
 12 13  2  0
 13 14  1  0
 14 15  2  0
 15 10  1  0
  9 16  2  0
 16 17  1  0
 17 18  2  0
 18 19  1  0
 19 20  2  0
 20  9  1  0
 21 22  1  0
 22 23  1  0
 23 24  1  0
 24 25  1  0
 25 26  1  0
 26 21  1  0
 18 21  1  0
  5 27  1  0
 14 28  1  0
 28 29  1  0
 29 30  1  0
 29 31  2  0
 30 32  2  0
 24 33  1  0
 16 34  1  0
 34 35  1  0
 30 36  1  0
 36 37  3  0
 32 38  1  0
 38 39  1  0
 38 40  1  0
M  END
> <chembl_id>
CHEMBL3425665

$$$$

  SciTegic08011209522D

 38 42  0  0  0  0            999 V2000
   31.1777    2.9709    0.0000 N   0  0
   31.1766    2.1435    0.0000 C   0  0
   31.8914    1.7306    0.0000 N   0  0
   31.8896    3.3836    0.0000 C   0  0
   32.6050    2.9745    0.0000 C   0  0
   32.6084    2.1414    0.0000 C   0  0
   33.3276    1.7301    0.0000 N   0  0
   34.0480    2.1473    0.0000 C   0  0
   34.0445    2.9804    0.0000 N   0  0
   33.3207    3.3963    0.0000 C   0  0
   33.3316    0.9086    0.0000 C   0  0
   32.6166    0.4947    0.0000 C   0  0
   32.6185   -0.3295    0.0000 C   0  0
   33.3346   -0.7409    0.0000 C   0  0
   34.0503   -0.3220    0.0000 C   0  0
   34.0449    0.5009    0.0000 C   0  0
   30.4618    1.7316    0.0000 N   0  0
   30.4611    0.9066    0.0000 C   0  0
   29.7462    0.4962    0.0000 C   0  0
   29.7452   -0.3280    0.0000 C   0  0
   30.4599   -0.7419    0.0000 C   0  0
   31.1771   -0.3256    0.0000 C   0  0
   31.1745    0.4973    0.0000 C   0  0
   34.7636    1.7368    0.0000 O   0  0
   34.7673   -0.7300    0.0000 N   0  0
   34.7725   -1.5550    0.0000 C   0  0
   35.4895   -1.9630    0.0000 C   0  0
   34.0606   -1.9720    0.0000 O   0  0
   35.4947   -2.7880    0.0000 C   0  0
   30.4603   -1.5669    0.0000 N   0  0
   34.7577    3.3951    0.0000 C   0  0
   29.7434   -1.9765    0.0000 C   0  0
   29.7419   -2.7979    0.0000 C   0  0
   30.4548   -3.2139    0.0000 O   0  0
   31.1708   -2.8022    0.0000 C   0  0
   31.1740   -1.9746    0.0000 C   0  0
   29.0325    0.9100    0.0000 O   0  0
   29.0341    1.7350    0.0000 C   0  0
 17 18  1  0
  6  7  1  0
 18 19  2  0
  7  8  1  0
 19 20  1  0
  8  9  1  0
 20 21  2  0
  9 10  1  0
 21 22  1  0
  5  6  1  0
 22 23  2  0
 23 18  1  0
  8 24  2  0
 11 12  2  0
 15 25  1  0
  2  3  1  0
 25 26  1  0
 12 13  1  0
 26 27  1  0
  3  6  2  0
 26 28  2  0
 13 14  2  0
 27 29  2  0
  1  2  2  0
 21 30  1  0
 14 15  1  0
  9 31  1  0
 30 32  1  0
  5  4  2  0
 15 16  2  0
 16 11  1  0
  7 11  1  0
  4  1  1  0
 30 36  1  0
 32 33  1  0
 33 34  1  0
 34 35  1  0
 35 36  1  0
  2 17  1  0
 19 37  1  0
  5 10  1  0
 37 38  1  0
M  END
> <chembl_id>
CHEMBL2032379

$$$$

  SciTegic12171313022D

 36 40  0  0  0  0            999 V2000
   23.6724  -12.6747    0.0000 C   0  0
   23.6712  -13.4942    0.0000 C   0  0
   24.3793  -13.9032    0.0000 N   0  0
   25.0889  -13.4937    0.0000 C   0  0
   25.0861  -12.6711    0.0000 N   0  0
   24.3775  -12.2658    0.0000 C   0  0
   25.7973  -13.9012    0.0000 N   0  0
   26.5043  -13.4915    0.0000 C   0  0
   27.2094  -13.8994    0.0000 C   0  0
   27.9159  -13.4904    0.0000 C   0  0
   27.9151  -12.6724    0.0000 C   0  0
   27.2018  -12.2650    0.0000 C   0  0
   26.4981  -12.6764    0.0000 C   0  0
   27.1976  -11.4479    0.0000 N   0  0
   27.2095  -14.7166    0.0000 O   0  0
   26.5018  -15.1253    0.0000 C   0  0
   26.4878  -11.0429    0.0000 C   0  0
   26.4837  -10.2257    0.0000 C   0  0
   25.7822  -11.4551    0.0000 O   0  0
   27.1893   -9.8135    0.0000 C   0  0
   28.6216  -12.2617    0.0000 N   0  0
   29.3248  -12.6716    0.0000 C   0  0
   30.0293  -12.2644    0.0000 C   0  0
   30.0311  -11.4469    0.0000 N   0  0
   29.3224  -11.0382    0.0000 C   0  0
   28.6118  -11.4470    0.0000 C   0  0
   30.7392  -11.0389    0.0000 C   0  0
   24.3692  -11.4477    0.0000 C   0  0
   25.0289  -10.9654    0.0000 C   0  0
   24.7740  -10.1890    0.0000 N   0  0
   23.7067  -10.9694    0.0000 C   0  0
   23.9566  -10.1945    0.0000 C   0  0
   23.4110   -9.5928    0.0000 C   0  0
   22.6155   -9.7646    0.0000 C   0  0
   22.3684  -10.5436    0.0000 C   0  0
   22.9157  -11.1420    0.0000 C   0  0
  1  2  2  0
  2  3  1  0
  3  4  2  0
  4  5  1  0
  5  6  2  0
  6  1  1  0
  4  7  1  0
  7  8  1  0
  8  9  2  0
  9 10  1  0
 10 11  2  0
 11 12  1  0
 12 13  2  0
 13  8  1  0
 12 14  1  0
  9 15  1  0
 15 16  1  0
 14 17  1  0
 17 18  1  0
 17 19  2  0
 18 20  2  0
 11 21  1  0
 21 22  1  0
 21 26  1  0
 22 23  1  0
 23 24  1  0
 24 25  1  0
 25 26  1  0
 24 27  1  0
 28 29  2  0
 29 30  1  0
 30 32  1  0
 31 28  1  0
  6 28  1  0
 31 32  2  0
 32 33  1  0
 33 34  2  0
 34 35  1  0
 35 36  2  0
 36 31  1  0
M  END
> <chembl_id>
CHEMBL2426279

$$$$

  Mrv0541 04051115152D          

 20 22  0  0  0  0            999 V2000
   24.1197    9.7762    0.0000 C   0  0  0  0  0  0  0  0  0  0  0  0
   23.5677    9.1632    0.0000 C   0  0  0  0  0  0  0  0  0  0  0  0
   22.7607    9.3347    0.0000 C   0  0  0  0  0  0  0  0  0  0  0  0
   23.8227    8.3785    0.0000 N   0  0  0  0  0  0  0  0  0  0  0  0
   23.3377    7.7111    0.0000 N   0  0  0  0  0  0  0  0  0  0  0  0
   24.6073    8.1236    0.0000 C   0  0  0  0  0  0  0  0  0  0  0  0
   25.3217    8.5361    0.0000 N   0  0  0  0  0  0  0  0  0  0  0  0
   26.0362    8.1236    0.0000 C   0  0  0  0  0  0  0  0  0  0  0  0
   26.0362    7.2986    0.0000 N   0  0  0  0  0  0  0  0  0  0  0  0
   25.3217    6.8861    0.0000 C   0  0  0  0  0  0  0  0  0  0  0  0
   25.3217    6.0611    0.0000 N   0  0  0  0  0  0  0  0  0  0  0  0
   24.6073    7.2986    0.0000 C   0  0  0  0  0  0  0  0  0  0  0  0
   23.8227    7.0437    0.0000 C   0  0  0  0  0  0  0  0  0  0  0  0
   23.5677    6.2590    0.0000 C   0  0  0  0  0  0  0  0  0  0  0  0
   24.1197    5.6459    0.0000 C   0  0  0  0  0  0  0  0  0  0  0  0
   22.7607    6.0875    0.0000 C   0  0  0  0  0  0  0  0  0  0  0  0
   22.5058    5.3029    0.0000 C   0  0  0  0  0  0  0  0  0  0  0  0
   23.0578    4.6898    0.0000 C   0  0  0  0  0  0  0  0  0  0  0  0
   23.8648    4.8613    0.0000 C   0  0  0  0  0  0  0  0  0  0  0  0
   24.4168    4.2482    0.0000 O   0  0  0  0  0  0  0  0  0  0  0  0
  2  3  1  0  0  0  0
  2  1  1  0  0  0  0
  2  4  1  0  0  0  0
  4  5  1  0  0  0  0
  6  4  1  0  0  0  0
 13  5  2  0  0  0  0
  6  7  1  0  0  0  0
 12  6  2  0  0  0  0
  8  7  2  0  0  0  0
  8  9  1  0  0  0  0
 10  9  2  0  0  0  0
 10 11  1  0  0  0  0
 10 12  1  0  0  0  0
 13 12  1  0  0  0  0
 13 14  1  0  0  0  0
 14 15  1  0  0  0  0
 14 16  2  0  0  0  0
 15 19  2  0  0  0  0
 16 17  1  0  0  0  0
 18 17  2  0  0  0  0
 18 19  1  0  0  0  0
 19 20  1  0  0  0  0
M  END
> <chembl_id>
CHEMBL1230790

$$$$

  SciTegic12201611512D

 28 31  0  0  0  0            999 V2000
   -7.3414    2.1476    0.0000 C   0  0
   -6.0489    2.9104    0.0000 C   0  0
   -6.0632    4.4104    0.0000 C   0  0
   -4.7714    5.1728    0.0000 C   0  0
   -3.4653    4.4352    0.0000 C   0  0
   -3.4508    2.9353    0.0000 C   0  0
   -4.7427    2.1729    0.0000 C   0  0
   -8.3748    1.5377    0.0000 N   0  0
   -7.1082    5.0004    0.0000 C   0  0
   -2.1454    2.1947    0.0000 N   0  0
   -2.1332   -2.2973    0.0000 N   0  0
   -3.4277   -1.5498    0.0000 C   0  0
   -3.4277    0.0000    0.0000 N   0  0
   -2.1332    0.6928    0.0000 C   0  0
   -0.8205    0.0000    0.0000 C   0  0
    0.4558    0.6928    0.0000 C   0  0
    1.7503    0.0000    0.0000 C   0  0
    1.7503   -1.5498    0.0000 C   0  0
    0.4558   -2.2973    0.0000 C   0  0
   -0.8205   -1.5498    0.0000 C   0  0
    0.4558    2.1879    0.0000 O   0  0
    3.0631    0.6928    0.0000 O   0  0
    3.0631    2.1879    0.0000 C   0  0
    1.7503    2.9537    0.0000 C   0  0
    3.0410   -2.3153    0.0000 O   0  0
    3.0239   -3.8160    0.0000 C   0  0
    4.0559   -4.4284    0.0000 C   0  0
    1.9778   -4.4039    0.0000 C   0  0
  1  2  1  0
  2  3  1  0
  3  4  2  0
  4  5  1  0
  5  6  2  0
  6  7  1  0
  2  7  2  0
  1  8  3  0
  3  9  1  0
 11 12  1  0
 12 13  2  0
 13 14  1  0
 14 15  2  0
 15 16  1  0
 16 17  2  0
 17 18  1  0
 18 19  2  0
 19 20  1  0
 11 20  2  0
 15 20  1  0
 22 23  1  0
 23 24  1  0
 21 24  1  0
 16 21  1  0
 17 22  1  0
 26 27  1  0
 26 28  1  0
 25 26  1  0
 18 25  1  0
 10 14  1  0
  6 10  1  0
M  END
> <chembl_id>
CHEMBL3806321

$$$$

  SciTegic12091611192D

 31 34  0  0  0  0            999 V2000
   -3.6217    1.4865    0.0000 N   0  0
   -7.5133    0.6990    0.0000 C   0  0
   -6.2219    1.4621    0.0000 N   0  0
   -4.9153    0.7255    0.0000 C   0  0
   -4.9001   -0.7745    0.0000 C   0  0
   -6.1914   -1.5377    0.0000 C   0  0
   -7.4980   -0.8010    0.0000 N   0  0
   -8.8205    1.4361    0.0000 N   0  0
   -8.8383    2.9360    0.0000 C   0  0
  -10.1461    3.6707    0.0000 C   0  0
  -11.4362    2.9055    0.0000 C   0  0
  -11.4185    1.4056    0.0000 C   0  0
  -10.1108    0.6709    0.0000 C   0  0
   -1.0028   -1.5132    0.0000 C   0  0
    0.2917   -0.7475    0.0000 C   0  0
    0.2917    0.7475    0.0000 C   0  0
   -1.0028    1.5132    0.0000 C   0  0
   -2.3155    0.7475    0.0000 C   0  0
   -2.3155   -0.7475    0.0000 N   0  0
    2.5889    0.0182    0.0000 C   0  0
    1.7138   -1.2033    0.0000 N   0  0
    1.7138    1.2033    0.0000 N   0  0
    3.7889    0.0269    0.0000 C   0  0
    2.1812    2.6271    0.0000 C   0  0
    3.3556    2.8737    0.0000 C   0  0
    1.3808    3.5211    0.0000 C   0  0
  -11.4173    4.3861    0.0000 O   0  0
  -12.6905    2.1191    0.0000 C   0  0
  -12.4631    4.9746    0.0000 C   0  0
  -12.6735    0.6184    0.0000 O   0  0
  -13.7054    0.0060    0.0000 C   0  0
  2  3  1  0
  3  4  2  0
  4  5  1  0
  5  6  2  0
  6  7  1  0
  2  7  2  0
  8  9  1  0
  9 10  1  0
 10 11  1  0
 11 12  1  0
 12 13  1  0
  8 13  1  0
  2  8  1  0
  1  4  1  0
 14 15  1  0
 15 16  2  0
 16 17  1  0
 17 18  2  0
 18 19  1  0
 14 19  2  0
 20 21  2  0
 20 22  1  0
 15 21  1  0
 16 22  1  0
  1 18  1  0
 20 23  1  0
 22 24  1  0
 24 25  1  0
 24 26  1  0
 11 27  1  0
 11 28  1  0
 27 29  1  0
 28 30  1  0
 30 31  1  0
M  END
> <chembl_id>
CHEMBL3735848

$$$$

  SciTegic12191611242D

 28 31  0  0  0  0            999 V2000
   -5.1543    0.9247    0.0000 O   0  0
   -6.1931    1.5253    0.0000 C   0  0
   -7.4931    0.7753    0.0000 C   0  0
   -7.4942   -0.4247    0.0000 C   0  0
   -6.1917    3.0261    0.0000 N   0  0
   -4.8917    3.7761    0.0000 C   0  0
   -4.8881    5.2761    0.0000 C   0  0
   -3.5873    6.0231    0.0000 C   0  0
   -2.2900    5.2700    0.0000 C   0  0
   -2.2935    3.7700    0.0000 C   0  0
   -0.9971    3.0138    0.0000 O   0  0
   -1.0028    1.5132    0.0000 C   0  0
   -2.3155    0.7475    0.0000 N   0  0
   -2.3155   -0.7475    0.0000 C   0  0
   -3.6187   -1.4919    0.0000 N   0  0
   -3.6267   -2.9927    0.0000 C   0  0
   -4.8430   -3.8486    0.0000 C   0  0
   -4.3841   -5.2767    0.0000 N   0  0
   -5.0926   -6.2452    0.0000 C   0  0
   -2.8841   -5.2815    0.0000 N   0  0
   -2.4160   -3.8564    0.0000 C   0  0
   -1.0028   -1.5132    0.0000 N   0  0
    0.2917   -0.7475    0.0000 C   0  0
    0.2917    0.7475    0.0000 C   0  0
    1.7138    1.2033    0.0000 C   0  0
    2.5889    0.0182    0.0000 C   0  0
    1.7138   -1.2033    0.0000 N   0  0
   -3.5944    3.0231    0.0000 C   0  0
  1  2  2  0
  2  3  1  0
  3  4  2  0
  2  5  1  0
  5  6  1  0
  6  7  2  0
  7  8  1  0
  8  9  2  0
  9 10  1  0
 10 11  1  0
 11 12  1  0
 12 13  2  0
 13 14  1  0
 14 15  1  0
 15 16  1  0
 16 17  2  0
 17 18  1  0
 18 19  1  0
 18 20  1  0
 20 21  2  0
 16 21  1  0
 14 22  2  0
 22 23  1  0
 23 24  2  0
 12 24  1  0
 24 25  1  0
 25 26  2  0
 26 27  1  0
 23 27  1  0
 10 28  2  0
  6 28  1  0
M  END
> <chembl_id>
CHEMBL3786962

$$$$

  SciTegic08011209522D

 52 58  0  0  0  0            999 V2000
   17.3652   -7.7666    0.0000 N   0  0
   17.3641   -8.5940    0.0000 C   0  0
   18.0789   -9.0069    0.0000 N   0  0
   18.0771   -7.3539    0.0000 C   0  0
   18.7925   -7.7630    0.0000 C   0  0
   18.7959   -8.5961    0.0000 C   0  0
   19.5151   -9.0074    0.0000 N   0  0
   20.2355   -8.5902    0.0000 C   0  0
   20.2320   -7.7571    0.0000 N   0  0
   19.5082   -7.3412    0.0000 C   0  0
   19.5191   -9.8289    0.0000 C   0  0
   18.8041  -10.2428    0.0000 C   0  0
   18.8060  -11.0670    0.0000 C   0  0
   19.5221  -11.4784    0.0000 C   0  0
   20.2378  -11.0595    0.0000 C   0  0
   20.2324  -10.2366    0.0000 C   0  0
   16.6493   -9.0059    0.0000 N   0  0
   16.6486   -9.8309    0.0000 C   0  0
   15.9337  -10.2413    0.0000 C   0  0
   15.9327  -11.0655    0.0000 C   0  0
   16.6474  -11.4794    0.0000 C   0  0
   17.3646  -11.0631    0.0000 C   0  0
   17.3620  -10.2402    0.0000 C   0  0
   20.9511   -9.0007    0.0000 O   0  0
   20.9548  -11.4675    0.0000 N   0  0
   20.9600  -12.2925    0.0000 C   0  0
   21.6770  -12.7005    0.0000 C   0  0
   20.2481  -12.7095    0.0000 O   0  0
   21.6822  -13.5255    0.0000 C   0  0
   16.6478  -12.3044    0.0000 N   0  0
   20.9452   -7.3424    0.0000 C   0  0
   15.9309  -12.7140    0.0000 C   0  0
   15.9294  -13.5354    0.0000 C   0  0
   16.6423  -13.9514    0.0000 N   0  0
   17.3583  -13.5397    0.0000 C   0  0
   17.3615  -12.7121    0.0000 C   0  0
   16.6396  -14.7764    0.0000 C   0  0
   15.2200   -9.8275    0.0000 O   0  0
   15.2216   -9.0025    0.0000 C   0  0
   21.6638   -7.7568    0.0000 C   0  0
   22.3765   -7.3428    0.0000 C   0  0
   22.3744   -6.5169    0.0000 C   0  0
   21.6536   -6.1068    0.0000 C   0  0
   20.9439   -6.5232    0.0000 C   0  0
   23.0871   -6.1013    0.0000 O   0  0
   23.8033   -6.5106    0.0000 C   0  0
   23.8070   -7.3356    0.0000 C   0  0
   23.0946   -7.7494    0.0000 C   0  0
   23.0979   -8.5736    0.0000 C   0  0
   23.8148   -8.9838    0.0000 C   0  0
   24.5298   -8.5637    0.0000 C   0  0
   24.5229   -7.7408    0.0000 C   0  0
 11 12  2  0
 15 25  1  0
  2  3  1  0
 25 26  1  0
 12 13  1  0
 26 27  1  0
  3  6  2  0
 26 28  2  0
 13 14  2  0
 27 29  2  0
  1  2  2  0
 21 30  1  0
 14 15  1  0
  9 31  1  0
 30 32  1  0
  5  4  2  0
 15 16  2  0
 16 11  1  0
  7 11  1  0
  4  1  1  0
 30 36  1  0
 32 33  1  0
 33 34  1  0
 34 35  1  0
 35 36  1  0
  2 17  1  0
 34 37  1  0
  5 10  1  0
 19 38  1  0
 17 18  1  0
 38 39  1  0
  6  7  1  0
 31 40  2  0
 18 19  2  0
 40 41  1  0
  7  8  1  0
 41 42  2  0
 19 20  1  0
 42 43  1  0
  8  9  1  0
 43 44  2  0
 44 31  1  0
 20 21  2  0
 42 45  1  0
  9 10  1  0
 45 46  1  0
 21 22  1  0
 46 47  1  0
  5  6  1  0
 47 48  2  0
 22 23  2  0
 48 49  1  0
 23 18  1  0
 49 50  2  0
 50 51  1  0
  8 24  2  0
 51 52  2  0
 52 47  1  0
M  END
> <chembl_id>
CHEMBL2029441

$$$$

  SciTegic02271217242D

 26 29  0  0  0  0            999 V2000
   10.3539  -16.8819    0.0000 N   0  0
   11.0703  -16.4685    0.0000 C   0  0
   11.0675  -15.6380    0.0000 N   0  0
   10.3521  -15.2289    0.0000 C   0  0
    9.6391  -16.4690    0.0000 C   0  0
    9.6403  -15.6401    0.0000 C   0  0
    8.8523  -15.3827    0.0000 N   0  0
    8.3641  -16.0526    0.0000 C   0  0
    8.8503  -16.7239    0.0000 C   0  0
   10.3503  -14.4039    0.0000 N   0  0
   11.0638  -13.9898    0.0000 C   0  0
   11.7761  -14.4037    0.0000 C   0  0
   12.4892  -13.9903    0.0000 C   0  0
   12.4878  -13.1644    0.0000 C   0  0
   11.7674  -12.7537    0.0000 C   0  0
   11.0573  -13.1694    0.0000 C   0  0
   13.2044  -14.4016    0.0000 Cl  0  0
   13.2008  -12.7494    0.0000 O   0  0
   13.9168  -13.1594    0.0000 C   0  0
   13.9168  -13.9844    0.0000 C   0  0
   14.6319  -14.3943    0.0000 C   0  0
   15.3459  -13.9792    0.0000 C   0  0
   15.3403  -13.1500    0.0000 C   0  0
   14.6246  -12.7438    0.0000 C   0  0
   16.0518  -12.7325    0.0000 O   0  0
   16.7692  -13.1399    0.0000 C   0  0
  5  1  1  0
 12 13  1  0
  2  3  1  0
 13 14  2  0
 14 15  1  0
  3  4  2  0
 15 16  2  0
 16 11  1  0
  6  7  1  0
 13 17  1  0
  7  8  1  0
 14 18  1  0
  8  9  2  0
 18 19  1  0
  9  5  1  0
 19 20  2  0
  4  6  1  0
 20 21  1  0
  4 10  1  0
 21 22  2  0
  5  6  2  0
 22 23  1  0
 10 11  1  0
 23 24  2  0
 24 19  1  0
  1  2  2  0
 23 25  1  0
 11 12  2  0
 25 26  1  0
M  END
> <chembl_id>
CHEMBL1921813

$$$$

          11280715532D 1   1.00000     0.00000     0

 30 31  0     0  0            999 V2000
    1.9628   -4.5876    0.0000 C   0  0  0  0  0  0           0  0  0
    1.9630   -5.4098    0.0000 C   0  0  0  0  0  0           0  0  0
    2.6787   -5.8186    0.0000 C   0  0  0  0  0  0           0  0  0
    3.3922   -5.4026    0.0000 C   0  0  0  0  0  0           0  0  0
    3.3853   -4.5733    0.0000 C   0  0  0  0  0  0           0  0  0
    2.6691   -4.1682    0.0000 C   0  0  0  0  0  0           0  0  0
    4.0963   -4.1548    0.0000 O   0  0  0  0  0  0           0  0  0
    4.8142   -4.5612    0.0000 C   0  0  0  0  0  0           0  0  0
    4.1091   -5.8106    0.0000 O   0  0  0  0  0  0           0  0  0
   -2.3229   -4.6114    0.0000 C   0  0  0  0  0  0           0  0  0
   -3.0410   -4.2025    0.0000 C   0  0  0  0  0  0           0  0  0
   -1.6104   -4.1953    0.0000 C   0  0  0  0  0  0           0  0  0
   -0.8940   -4.6042    0.0000 C   0  0  0  0  0  0           0  0  0
   -0.1815   -4.1882    0.0000 C   0  0  0  0  0  0           0  0  0
    0.5350   -4.5972    0.0000 C   0  0  0  0  0  0           0  0  0
   -0.1856   -3.3632    0.0000 O   0  0  0  0  0  0           0  0  0
    1.2474   -4.1812    0.0000 C   0  0  0  0  0  0           0  0  0
   -3.7530   -4.6194    0.0000 C   0  0  0  0  0  0           0  0  0
   -1.6146   -3.3704    0.0000 O   0  0  0  0  0  0           0  0  0
   -4.4660   -4.2096    0.0000 C   0  0  0  0  0  0           0  0  0
   -5.1774   -4.6257    0.0000 C   0  0  0  0  0  0           0  0  0
   -5.1728   -5.4516    0.0000 C   0  0  0  0  0  0           0  0  0
   -4.4508   -5.8595    0.0000 C   0  0  0  0  0  0           0  0  0
   -3.7423   -5.4410    0.0000 C   0  0  0  0  0  0           0  0  0
   -5.8942   -4.2173    0.0000 O   0  0  0  0  0  0           0  0  0
   -5.8842   -5.8694    0.0000 O   0  0  0  0  0  0           0  0  0
   -6.6119   -4.6338    0.0000 C   0  0  0  0  0  0           0  0  0
   -0.8899   -5.4292    0.0000 C   0  0  0  0  0  0           0  0  0
   -1.6014   -5.8479    0.0000 C   0  0  0  0  0  0           0  0  0
   -0.1725   -5.8408    0.0000 O   0  0  0  0  0  0           0  0  0
  3  4  1  0     0  0
 14 16  2  0     0  0
  7  8  1  0     0  0
 15 17  2  0     0  0
 17  1  1  0     0  0
 11 18  1  0     0  0
  4  9  1  0     0  0
 12 19  1  0     0  0
  4  5  2  0     0  0
 18 20  2  0     0  0
  2  3  2  0     0  0
 20 21  1  0     0  0
 10 11  2  0     0  0
 21 22  2  0     0  0
  5  6  1  0     0  0
 22 23  1  0     0  0
 10 12  1  0     0  0
 23 24  2  0     0  0
 24 18  1  0     0  0
  6  1  2  0     0  0
 21 25  1  0     0  0
 12 13  2  0     0  0
 22 26  1  0     0  0
  1  2  1  0     0  0
 25 27  1  0     0  0
 13 14  1  0     0  0
 13 28  1  0     0  0
  5  7  1  0     0  0
 14 15  1  0     0  0
 28 29  1  0     0  0
 28 30  2  0     0  0
M  END
> <chembl_id>
CHEMBL443307

$$$$

  SciTegic12161615052D

 29 31  0  0  0  0            999 V2000
    1.2990   -0.7500    0.0000 C   0  0
    1.2990    0.7500    0.0000 C   0  0
    0.0000    1.5000    0.0000 C   0  0
   -1.2990    0.7500    0.0000 C   0  0
   -1.2990   -0.7500    0.0000 C   0  0
    0.0000   -1.5000    0.0000 N   0  0
    2.5972    1.5031    0.0000 C   0  0
    3.6375    0.9049    0.0000 O   0  0
    2.5951    3.0039    0.0000 N   0  0
    2.3383   -1.3500    0.0000 O   0  0
    3.8933    3.7570    0.0000 C   0  0
    3.8933    5.2571    0.0000 C   0  0
    5.1924    6.0071    0.0000 C   0  0
    6.4914    5.2571    0.0000 C   0  0
    6.4915    3.7571    0.0000 C   0  0
    5.1925    3.0071    0.0000 C   0  0
   -0.0031    3.0008    0.0000 N   0  0
   -1.3039    3.7494    0.0000 C   0  0
   -1.3070    5.2502    0.0000 C   0  0
   -2.6078    5.9988    0.0000 C   0  0
   -2.6131    7.4988    0.0000 C   0  0
   -3.9148    8.2443    0.0000 C   0  0
   -5.2112    7.4898    0.0000 C   0  0
   -5.2060    5.9898    0.0000 C   0  0
   -3.9044    5.2443    0.0000 C   0  0
   -6.2431    5.3862    0.0000 Cl  0  0
    7.7927    6.0049    0.0000 N   0  0
    8.8311    5.4035    0.0000 C   0  0
    7.7948    7.2049    0.0000 C   0  0
  1  2  1  0
  2  3  2  0
  3  4  1  0
  4  5  2  0
  5  6  1  0
  1  6  1  0
  7  8  2  0
  7  9  1  0
  2  7  1  0
  1 10  2  0
  9 11  1  0
 11 12  2  0
 12 13  1  0
 13 14  2  0
 14 15  1  0
 15 16  2  0
 16 11  1  0
  3 17  1  0
 17 18  1  0
 18 19  1  0
 19 20  1  0
 20 21  2  0
 21 22  1  0
 22 23  2  0
 23 24  1  0
 24 25  2  0
 25 20  1  0
 24 26  1  0
 14 27  1  0
 27 28  1  0
 27 29  1  0
M  END
> <chembl_id>
CHEMBL3781817

$$$$

  SciTegic12121612052D

 38 43  0  0  0  0            999 V2000
    4.1308   -5.1638    0.0000 C   0  0
    2.6307   -5.1733    0.0000 C   0  0
    1.8889   -6.4770    0.0000 C   0  0
    2.6470   -7.7713    0.0000 C   0  0
    4.1470   -7.7619    0.0000 C   0  0
    4.8888   -6.4582    0.0000 C   0  0
    6.0888   -6.4508    0.0000 C   0  0
    2.0535   -8.8143    0.0000 F   0  0
    4.9081   -9.0554    0.0000 N   0  0
    6.4089   -9.0439    0.0000 C   0  0
    7.0006   -7.9999    0.0000 O   0  0
    4.8709   -3.8583    0.0000 C   0  0
    6.3709   -3.8465    0.0000 N   0  0
    7.1107   -2.5417    0.0000 N   0  0
    6.3505   -1.2485    0.0000 C   0  0
    4.8506   -1.2602    0.0000 C   0  0
    4.1108   -2.5652    0.0000 C   0  0
    6.9424   -0.2047    0.0000 O   0  0
    4.0872    0.0320    0.0000 N   0  0
    2.5889    0.0182    0.0000 C   0  0
    1.7138    1.2033    0.0000 C   0  0
    1.7138   -1.2033    0.0000 N   0  0
    0.2917   -0.7475    0.0000 N   0  0
    0.2917    0.7475    0.0000 C   0  0
   -1.0028    1.5132    0.0000 C   0  0
   -2.3155    0.7475    0.0000 N   0  0
   -2.3155   -0.7475    0.0000 C   0  0
   -1.0028   -1.5132    0.0000 C   0  0
   -3.3560    1.3452    0.0000 C   0  0
    7.1701  -10.3374    0.0000 C   0  0
    8.6273  -10.4606    0.0000 S   0  0
    6.5626  -11.6970    0.0000 C   0  0
    7.6843  -12.6829    0.0000 C   0  0
    8.9669  -11.9148    0.0000 C   0  0
   10.2889  -12.6320    0.0000 C   0  0
   10.3063  -14.1516    0.0000 C   0  0
    9.0237  -14.9197    0.0000 C   0  0
    7.6923  -14.1869    0.0000 C   0  0
  1  2  2  0
  2  3  1  0
  3  4  2  0
  4  5  1  0
  5  6  2  0
  6  1  1  0
  6  7  1  0
  4  8  1  0
  5  9  1  0
  9 10  1  0
 10 11  2  0
 12 13  2  0
 13 14  1  0
 14 15  1  0
 15 16  1  0
 16 17  2  0
 17 12  1  0
  1 12  1  0
 15 18  2  0
 16 19  1  0
 19 20  1  0
 20 21  1  0
 21 24  2  0
 23 22  1  0
 22 20  2  0
 23 24  1  0
 23 28  1  0
 24 25  1  0
 25 26  1  0
 26 27  1  0
 27 28  1  0
 26 29  1  0
 30 31  1  0
 31 34  1  0
 33 32  1  0
 32 30  2  0
 10 30  1  0
 33 34  2  0
 34 35  1  0
 35 36  2  0
 36 37  1  0
 37 38  2  0
 38 33  1  0
M  END
> <chembl_id>
CHEMBL3746293

$$$$

  Mrv0541 04051115152D          

 38 41  0  0  0  0            999 V2000
    0.2764    1.6251    0.0000 N   0  0  0  0  0  0  0  0  0  0  0  0
   -3.2540   -0.3706    0.0000 N   0  0  0  0  0  0  0  0  0  0  0  0
   -2.4221    2.0376    0.0000 C   0  0  0  0  0  0  0  0  0  0  0  0
   -1.9372    2.7051    0.0000 C   0  0  0  0  0  0  0  0  0  0  0  0
   -2.1921    0.5856    0.0000 C   0  0  0  0  0  0  0  0  0  0  0  0
   -2.9991    0.4140    0.0000 C   0  0  0  0  0  0  0  0  0  0  0  0
   -4.0610   -0.5421    0.0000 C   0  0  0  0  0  0  0  0  0  0  0  0
    0.2764   -0.0249    0.0000 C   0  0  0  0  0  0  0  0  0  0  0  0
    1.7053   -0.8499    0.0000 C   0  0  0  0  0  0  0  0  0  0  0  0
    0.2764   -0.8499    0.0000 C   0  0  0  0  0  0  0  0  0  0  0  0
    3.1343   -0.0249    0.0000 C   0  0  0  0  0  0  0  0  0  0  0  0
    4.5632   -0.8499    0.0000 C   0  0  0  0  0  0  0  0  0  0  0  0
    3.8487   -1.2624    0.0000 C   0  0  0  0  0  0  0  0  0  0  0  0
    5.2777   -1.2624    0.0000 C   0  0  0  0  0  0  0  0  0  0  0  0
   -5.9299   -1.6698    0.0000 C   0  0  0  0  0  0  0  0  0  0  0  0
    5.9921   -1.6749    0.0000 F   0  0  0  0  0  0  0  0  0  0  0  0
    4.8652   -1.9768    0.0000 F   0  0  0  0  0  0  0  0  0  0  0  0
    5.6902   -0.5479    0.0000 F   0  0  0  0  0  0  0  0  0  0  0  0
    4.5632   -0.0249    0.0000 C   0  0  0  0  0  0  0  0  0  0  0  0
    3.8487    0.3876    0.0000 C   0  0  0  0  0  0  0  0  0  0  0  0
    3.1343   -0.8499    0.0000 C   0  0  0  0  0  0  0  0  0  0  0  0
    2.4198   -1.2624    0.0000 O   0  0  0  0  0  0  0  0  0  0  0  0
    1.7053   -0.0249    0.0000 C   0  0  0  0  0  0  0  0  0  0  0  0
    2.4198    0.3876    0.0000 Cl  0  0  0  0  0  0  0  0  0  0  0  0
    0.9909    0.3876    0.0000 C   0  0  0  0  0  0  0  0  0  0  0  0
    0.9909   -1.2624    0.0000 C   0  0  0  0  0  0  0  0  0  0  0  0
   -0.4381    0.3876    0.0000 N   0  0  0  0  0  0  0  0  0  0  0  0
   -0.4381    1.2126    0.0000 C   0  0  0  0  0  0  0  0  0  0  0  0
    0.2764    2.4501    0.0000 C   0  0  0  0  0  0  0  0  0  0  0  0
   -1.1526    1.6251    0.0000 C   0  0  0  0  0  0  0  0  0  0  0  0
   -1.1526    2.4501    0.0000 C   0  0  0  0  0  0  0  0  0  0  0  0
   -0.4381    2.8626    0.0000 N   0  0  0  0  0  0  0  0  0  0  0  0
   -1.9372    1.3702    0.0000 N   0  0  0  0  0  0  0  0  0  0  0  0
   -4.6130    0.0710    0.0000 O   0  0  0  0  0  0  0  0  0  0  0  0
   -4.3159   -1.3267    0.0000 C   0  0  0  0  0  0  0  0  0  0  0  0
   -5.1229   -1.4983    0.0000 C   0  0  0  0  0  0  0  0  0  0  0  0
   -5.2944   -0.6913    0.0000 O   0  0  0  0  0  0  0  0  0  0  0  0
   -4.9514   -2.3052    0.0000 C   0  0  0  0  0  0  0  0  0  0  0  0
 29  1  2  0  0  0  0
 28  1  1  0  0  0  0
  7  2  1  0  0  0  0
  6  2  1  0  0  0  0
  3 33  1  0  0  0  0
  3  4  2  0  0  0  0
 31  4  1  0  0  0  0
  5  6  1  0  0  0  0
  5 33  1  0  0  0  0
  7 34  2  0  0  0  0
  7 35  1  0  0  0  0
  8 25  2  0  0  0  0
  8 10  1  0  0  0  0
  8 27  1  0  0  0  0
  9 22  1  0  0  0  0
 23  9  2  0  0  0  0
  9 26  1  0  0  0  0
 26 10  2  0  0  0  0
 11 20  2  0  0  0  0
 21 11  1  0  0  0  0
 19 12  2  0  0  0  0
 12 14  1  0  0  0  0
 12 13  1  0  0  0  0
 21 13  2  0  0  0  0
 14 17  1  0  0  0  0
 14 16  1  0  0  0  0
 14 18  1  0  0  0  0
 36 15  1  0  0  0  0
 20 19  1  0  0  0  0
 21 22  1  0  0  0  0
 23 24  1  0  0  0  0
 25 23  1  0  0  0  0
 28 27  1  0  0  0  0
 28 30  2  0  0  0  0
 29 32  1  0  0  0  0
 31 30  1  0  0  0  0
 30 33  1  0  0  0  0
 31 32  2  0  0  0  0
 36 35  1  0  0  0  0
 36 38  1  0  0  0  0
 36 37  1  0  0  0  0
M  END
> <chembl_id>
CHEMBL1614725

$$$$

  SciTegic12171313052D

 27 30  0  0  0  0            999 V2000
   20.7297   -3.5865    0.0000 C   0  0
   20.7285   -4.4061    0.0000 C   0  0
   21.4366   -4.8150    0.0000 C   0  0
   22.1462   -4.4056    0.0000 C   0  0
   22.1434   -3.5829    0.0000 C   0  0
   21.4348   -3.1777    0.0000 C   0  0
   21.4323   -2.3605    0.0000 N   0  0
   22.1388   -1.9498    0.0000 C   0  0
   22.8492   -2.3607    0.0000 N   0  0
   22.8393   -0.7263    0.0000 C   0  0
   22.1362   -1.1386    0.0000 N   0  0
   23.5532   -1.1326    0.0000 C   0  0
   23.5540   -1.9523    0.0000 C   0  0
   24.2604   -2.3593    0.0000 N   0  0
   24.9705   -1.9510    0.0000 C   0  0
   24.9697   -1.1312    0.0000 C   0  0
   24.2588   -0.7198    0.0000 N   0  0
   24.2615   -3.1738    0.0000 C   0  0
   23.5520   -3.5814    0.0000 C   0  0
   23.5513   -4.3979    0.0000 C   0  0
   24.2594   -4.8076    0.0000 C   0  0
   24.9696   -4.3949    0.0000 C   0  0
   24.9668   -3.5798    0.0000 C   0  0
   25.6780   -2.3599    0.0000 O   0  0
   21.4364   -5.6322    0.0000 N   0  0
   24.2601   -5.6248    0.0000 O   0  0
   23.5528   -6.0340    0.0000 C   0  0
  1  2  2  0
  2  3  1  0
  3  4  2  0
  4  5  1  0
  5  6  2  0
  6  1  1  0
  6  7  1  0
  7  8  1  0
  8  9  2  0
  9 13  1  0
 12 10  1  0
 10 11  2  0
 11  8  1  0
 12 13  2  0
 12 17  1  0
 13 14  1  0
 14 15  1  0
 15 16  1  0
 16 17  2  0
 18 19  2  0
 19 20  1  0
 20 21  2  0
 21 22  1  0
 22 23  2  0
 23 18  1  0
 14 18  1  0
 15 24  2  0
  3 25  1  0
 21 26  1  0
 26 27  1  0
M  END
> <chembl_id>
CHEMBL2437475

$$$$

  SciTegic04191617032D

 25 27  0  0  0  0            999 V2000
    1.2990   -0.7500    0.0000 C   0  0
    1.2990    0.7500    0.0000 C   0  0
    0.0000    1.5000    0.0000 N   0  0
   -1.2990    0.7500    0.0000 C   0  0
   -1.2990   -0.7500    0.0000 N   0  0
    0.0000   -1.5000    0.0000 C   0  0
    0.0031   -3.0008    0.0000 N   0  0
    1.3039   -3.7494    0.0000 C   0  0
    1.4469   -5.2297    0.0000 C   0  0
    2.9152   -5.5365    0.0000 C   0  0
    3.6607   -4.2349    0.0000 N   0  0
    2.6532   -3.1236    0.0000 N   0  0
    3.4071   -6.6311    0.0000 C   0  0
   -2.6003    1.4977    0.0000 O   0  0
   -3.8990    0.7455    0.0000 C   0  0
   -5.2007    1.4909    0.0000 C   0  0
   -6.4972    0.7364    0.0000 C   0  0
   -6.4920   -0.7636    0.0000 C   0  0
   -5.1903   -1.5091    0.0000 C   0  0
   -3.8939   -0.7546    0.0000 C   0  0
   -5.1821   -3.0099    0.0000 N   0  0
   -3.8787   -3.7540    0.0000 C   0  0
   -3.8704   -5.2548    0.0000 C   0  0
   -2.8426   -3.1486    0.0000 O   0  0
   -2.8282   -5.8497    0.0000 C   0  0
  1  2  2  0
  2  3  1  0
  3  4  2  0
  4  5  1  0
  5  6  2  0
  6  1  1  0
  6  7  1  0
  7  8  1  0
  8  9  1  0
  9 10  2  0
 10 11  1  0
 11 12  1  0
 12  8  2  0
 10 13  1  0
  4 14  1  0
 14 15  1  0
 15 16  2  0
 16 17  1  0
 17 18  2  0
 18 19  1  0
 19 20  2  0
 20 15  1  0
 19 21  1  0
 21 22  1  0
 22 23  1  0
 22 24  2  0
 23 25  1  0
M  END
> <chembl_id>
CHEMBL3604932

$$$$

  SciTegic01181116592D

 41 47  0  0  0  0            999 V2000
    4.1190  -14.6559    0.0000 C   0  0  2  0  0  0
    3.5675  -15.2682    0.0000 C   0  0
    3.8194  -16.0500    0.0000 C   0  0
    4.6258  -16.2259    0.0000 C   0  0  2  0  0  0
    5.1800  -15.6135    0.0000 C   0  0
    4.9278  -14.8252    0.0000 C   0  0
    4.8776  -17.0116    0.0000 N   0  0
    4.3247  -17.6204    0.0000 C   0  0
    4.5736  -18.4032    0.0000 C   0  0
    5.3793  -18.5821    0.0000 N   0  0
    5.9358  -17.9718    0.0000 C   0  0
    5.6867  -17.1826    0.0000 C   0  0
    5.6282  -19.3687    0.0000 C   0  0
    3.8630  -13.8716    0.0000 N   0  0
    1.6527  -12.7958    0.0000 N   0  0
    1.6516  -13.6190    0.0000 C   0  0
    2.3706  -14.0319    0.0000 N   0  0
    2.3688  -12.3830    0.0000 C   0  0
    3.0800  -12.7922    0.0000 C   0  0
    3.0807  -13.6190    0.0000 C   0  0
    4.3488  -13.2085    0.0000 N   0  0
    3.8651  -12.5384    0.0000 C   0  0
    4.2757  -11.8235    0.0000 C   0  0
    5.1016  -11.8254    0.0000 C   0  0
    5.5124  -11.1109    0.0000 C   0  0
    5.0983  -10.3963    0.0000 C   0  0
    4.2690  -10.4008    0.0000 C   0  0
    3.8619  -11.1160    0.0000 C   0  0
    5.5083   -9.6804    0.0000 N   0  0
    6.3333   -9.6775    0.0000 C   0  0
    6.8201  -10.3379    0.0000 O   0  0
    6.8153   -9.0031    0.0000 N   0  0
    7.6009   -9.2551    0.0000 C   0  0
    7.6016  -10.0774    0.0000 C   0  0
    8.3129  -10.4860    0.0000 C   0  0
    9.0239  -10.0736    0.0000 C   0  0
    9.0192   -9.2483    0.0000 C   0  0
    8.3073   -8.8433    0.0000 C   0  0
    8.3145  -11.3110    0.0000 Cl  0  0
    2.3684  -11.5580    0.0000 N   0  0
    3.8525   -9.6887    0.0000 Cl  0  0
 21 22  2  0
 22 19  1  0
  8  9  1  0
 22 23  1  0
  9 10  1  0
 23 24  2  0
 10 11  1  0
 24 25  1  0
 11 12  1  0
 25 26  2  0
  5  6  1  0
 26 27  1  0
 10 13  1  0
 27 28  2  0
 28 23  1  0
  1  2  1  0
 26 29  1  0
  1 14  1  1
 29 30  1  0
 30 31  1  0
  4  7  1  6
  7  8  1  0
 31 34  1  0
 33 32  1  0
 32 30  2  0
 15 16  2  0
 33 34  2  0
 16 17  1  0
 34 35  1  0
 17 20  2  0
 35 36  2  0
  1  6  1  0
 36 37  1  0
 19 18  2  0
 37 38  2  0
 38 33  1  0
 18 15  1  0
 35 39  1  0
 19 20  1  0
 18 40  1  0
  2  3  1  0
  3  4  1  0
  4  5  1  0
  7 12  1  0
 20 14  1  0
 14 21  1  0
 27 41  1  0
M  END
> <chembl_id>
CHEMBL1256433

$$$$

  Mrv0541 04051115152D          

 33 37  0  0  0  0            999 V2000
   -2.8952    0.1401    0.0000 C   0  0  0  0  0  0  0  0  0  0  0  0
   -3.3077    0.8546    0.0000 C   0  0  0  0  0  0  0  0  0  0  0  0
   -4.1327    0.8546    0.0000 N   0  0  0  0  0  0  0  0  0  0  0  0
   -4.5452    1.5691    0.0000 C   0  0  0  0  0  0  0  0  0  0  0  0
   -5.3702    1.5691    0.0000 C   0  0  0  0  0  0  0  0  0  0  0  0
   -4.5452    0.1401    0.0000 C   0  0  0  0  0  0  0  0  0  0  0  0
   -4.1327   -0.5743    0.0000 C   0  0  0  0  0  0  0  0  0  0  0  0
   -3.3077   -0.5743    0.0000 N   0  0  0  0  0  0  0  0  0  0  0  0
   -2.8952   -1.2888    0.0000 C   0  0  0  0  0  0  0  0  0  0  0  0
   -2.0702   -1.2888    0.0000 C   0  0  0  0  0  0  0  0  0  0  0  0
   -1.6577   -2.0033    0.0000 C   0  0  0  0  0  0  0  0  0  0  0  0
   -0.8327   -2.0033    0.0000 C   0  0  0  0  0  0  0  0  0  0  0  0
   -1.6577   -0.5743    0.0000 C   0  0  0  0  0  0  0  0  0  0  0  0
   -0.8327   -0.5743    0.0000 C   0  0  0  0  0  0  0  0  0  0  0  0
   -0.4202   -1.2888    0.0000 C   0  0  0  0  0  0  0  0  0  0  0  0
    0.4048   -1.2888    0.0000 C   0  0  0  0  0  0  0  0  0  0  0  0
    0.8897   -1.9562    0.0000 N   0  0  0  0  0  0  0  0  0  0  0  0
    0.8897   -0.6214    0.0000 C   0  0  0  0  0  0  0  0  0  0  0  0
    1.6744   -0.8763    0.0000 C   0  0  0  0  0  0  0  0  0  0  0  0
    1.6744   -1.7013    0.0000 C   0  0  0  0  0  0  0  0  0  0  0  0
    2.3888   -2.1138    0.0000 N   0  0  0  0  0  0  0  0  0  0  0  0
    3.1033   -1.7013    0.0000 C   0  0  0  0  0  0  0  0  0  0  0  0
    3.1033   -0.8763    0.0000 N   0  0  0  0  0  0  0  0  0  0  0  0
    2.3888   -0.4638    0.0000 C   0  0  0  0  0  0  0  0  0  0  0  0
    2.3888    0.3612    0.0000 N   0  0  0  0  0  0  0  0  0  0  0  0
    3.1033    0.7737    0.0000 C   0  0  2  0  0  0  0  0  0  0  0  0
    3.8178    0.3612    0.0000 C   0  0  0  0  0  0  0  0  0  0  0  0
    3.1033    1.5987    0.0000 C   0  0  0  0  0  0  0  0  0  0  0  0
    3.8178    2.0112    0.0000 C   0  0  0  0  0  0  0  0  0  0  0  0
    3.8178    2.8362    0.0000 C   0  0  0  0  0  0  0  0  0  0  0  0
    3.1033    3.2487    0.0000 C   0  0  0  0  0  0  0  0  0  0  0  0
    2.3888    2.8362    0.0000 C   0  0  0  0  0  0  0  0  0  0  0  0
    2.3888    2.0112    0.0000 C   0  0  0  0  0  0  0  0  0  0  0  0
  2  1  1  0  0  0  0
  1  8  1  0  0  0  0
  2  3  1  0  0  0  0
  4  3  1  0  0  0  0
  6  3  1  0  0  0  0
  5  4  1  0  0  0  0
  6  7  1  0  0  0  0
  7  8  1  0  0  0  0
  9  8  1  0  0  0  0
  9 10  1  0  0  0  0
 11 10  2  0  0  0  0
 13 10  1  0  0  0  0
 11 12  1  0  0  0  0
 12 15  2  0  0  0  0
 13 14  2  0  0  0  0
 14 15  1  0  0  0  0
 15 16  1  0  0  0  0
 16 17  1  0  0  0  0
 18 16  2  0  0  0  0
 20 17  1  0  0  0  0
 19 18  1  0  0  0  0
 20 19  2  0  0  0  0
 19 24  1  0  0  0  0
 20 21  1  0  0  0  0
 22 21  2  0  0  0  0
 22 23  1  0  0  0  0
 24 23  2  0  0  0  0
 24 25  1  0  0  0  0
 26 25  1  0  0  0  0
 26 27  1  1  0  0  0
 28 26  1  0  0  0  0
 29 28  2  0  0  0  0
 33 28  1  0  0  0  0
 30 29  1  0  0  0  0
 31 30  2  0  0  0  0
 31 32  1  0  0  0  0
 32 33  2  0  0  0  0
M  END
> <chembl_id>
CHEMBL587723

$$$$

  SciTegic01161211252D

 44 50  0  0  0  0            999 V2000
    4.6089   -2.6368    0.0000 N   0  0
    3.9240   -2.1766    0.0000 C   0  0
    3.9800   -1.3533    0.0000 C   0  0
    3.1830   -2.5397    0.0000 O   0  0
    4.7233   -0.9931    0.0000 C   0  0
    4.7797   -0.1706    0.0000 C   0  0
    4.0942    0.2905    0.0000 C   0  0
    3.3505   -0.0769    0.0000 C   0  0
    3.2976   -0.8984    0.0000 C   0  0
    2.5580   -1.2642    0.0000 F   0  0
    5.4072   -1.4551    0.0000 F   0  0
    3.8624   -3.8528    0.0000 C   0  0
    3.8364   -4.6799    0.0000 C   0  0
    4.5386   -5.1143    0.0000 C   0  0
    5.2675   -4.7225    0.0000 C   0  0
    5.2896   -3.8920    0.0000 C   0  0
    4.5866   -3.4615    0.0000 C   0  0
    5.9707   -5.1530    0.0000 C   0  0
    5.9893   -5.9786    0.0000 C   0  0
    6.7492   -4.8800    0.0000 N   0  0
    7.2497   -5.5360    0.0000 C   0  0
    6.7826   -6.2142    0.0000 N   0  0
    7.2832   -6.8681    0.0000 C   0  0
    8.0598   -6.5941    0.0000 C   0  0
    8.0391   -5.7709    0.0000 S   0  0
    5.2837   -6.4036    0.0000 C   0  0
    4.5616   -6.0020    0.0000 C   0  0
    3.8547   -6.4264    0.0000 C   0  0
    5.2996   -7.2254    0.0000 N   0  0
    4.5957   -7.6522    0.0000 C   0  0
    3.8650   -7.2533    0.0000 N   0  0
    4.6147   -8.4769    0.0000 N   0  0
    3.9075   -8.9025    0.0000 C   0  0
    3.1902   -8.5001    0.0000 C   0  0
    2.4835   -8.9248    0.0000 C   0  0
    2.4979   -9.7507    0.0000 C   0  0
    3.2249  -10.1502    0.0000 C   0  0
    3.9286   -9.7233    0.0000 C   0  0
    3.2426  -10.9753    0.0000 N   0  0
    2.5357  -11.3967    0.0000 C   0  0
    2.5513  -12.2181    0.0000 C   0  0
    3.2729  -12.6193    0.0000 O   0  0
    3.9804  -12.1926    0.0000 C   0  0
    3.9663  -11.3649    0.0000 C   0  0
  9  3  1  0
  9 10  1  0
  5 11  1  0
  1  2  1  0
  2  3  1  0
  2  4  2  0
  3  5  2  0
  5  6  1  0
  6  7  2  0
  7  8  1  0
  8  9  2  0
 15 18  1  0
 21 22  1  0
 15 16  1  0
 13 14  1  0
 16 17  2  0
 17 12  1  0
 18 19  2  0
 22 23  1  0
 23 24  2  0
 24 25  1  0
 30 32  1  0
 25 21  1  0
 32 33  1  0
 12 13  2  0
 33 34  2  0
 14 15  2  0
 34 35  1  0
 26 27  2  0
 35 36  2  0
 36 37  1  0
 27 28  1  0
 37 38  2  0
 38 33  1  0
 28 31  2  0
 19 22  1  0
 30 29  2  0
 37 39  1  0
 39 40  1  0
 29 26  1  0
 19 26  1  0
 30 31  1  0
 21 20  2  0
 20 18  1  0
 39 44  1  0
 40 41  1  0
 41 42  1  0
 42 43  1  0
 43 44  1  0
 17  1  1  0
M  END
> <chembl_id>
CHEMBL1088931

$$$$

  SciTegic10011413212D

 44 48  0  0  0  0            999 V2000
    1.5023  -15.6092    0.0000 C   0  0
    1.5023  -16.4264    0.0000 C   0  0
    2.2076  -16.8308    0.0000 N   0  0
    2.9129  -16.4264    0.0000 C   0  0
    2.9129  -15.6092    0.0000 C   0  0
    2.2076  -15.1965    0.0000 N   0  0
    2.2076  -17.6480    0.0000 C   0  0
    2.2080  -14.3801    0.0000 C   0  0
    2.9174  -13.9721    0.0000 C   0  0
    2.9177  -13.1557    0.0000 C   0  0
    2.2095  -12.7463    0.0000 C   0  0
    1.4994  -13.1592    0.0000 C   0  0
    1.5026  -13.9743    0.0000 C   0  0
    0.7903  -12.7532    0.0000 O   0  0
    0.0840  -13.1642    0.0000 C   0  0
    2.2084  -11.9291    0.0000 N   0  0
    2.9155  -11.5195    0.0000 C   0  0
    3.6221  -11.9314    0.0000 N   0  0
    3.6149  -10.2970    0.0000 C   0  0
    2.9112  -10.7082    0.0000 N   0  0
    4.3331  -11.5210    0.0000 C   0  0
    4.3281  -10.7045    0.0000 C   0  0
    4.9661  -10.1857    0.0000 C   0  0
    4.9803  -12.0282    0.0000 N   0  0
    5.7797  -11.8376    0.0000 C   0  0
    5.7644  -10.3571    0.0000 N   0  0
    6.1269  -11.0933    0.0000 C   0  0
    4.7753   -9.3911    0.0000 O   0  0
    6.2962  -12.4709    0.0000 O   0  0
    4.8079  -12.8226    0.0000 C   0  0
    4.0278  -13.0696    0.0000 C   0  0
    3.8530  -13.8671    0.0000 C   0  0
    4.4574  -14.4184    0.0000 C   0  0
    5.2393  -14.1667    0.0000 C   0  0
    5.4104  -13.3697    0.0000 C   0  0
    5.8453  -14.7149    0.0000 N   0  0
    5.6736  -15.5138    0.0000 C   0  0
    6.2796  -16.0620    0.0000 C   0  0
    4.8958  -15.7645    0.0000 O   0  0
    6.1078  -16.8610    0.0000 C   0  0
    6.2669   -9.7127    0.0000 C   0  0
    6.9440  -11.0847    0.0000 C   0  0
    7.3601  -11.7880    0.0000 C   0  0
    7.3451  -10.3727    0.0000 C   0  0
  1  2  1  0
  1  6  1  0
  2  3  1  0
  3  4  1  0
  4  5  1  0
  5  6  1  0
  3  7  1  0
  8  9  2  0
  9 10  1  0
 10 11  2  0
 11 12  1  0
 12 13  2  0
 13  8  1  0
  6  8  1  0
 12 14  1  0
 14 15  1  0
 11 16  1  0
 16 17  1  0
 17 18  2  0
 18 21  1  0
 22 19  1  0
 19 20  2  0
 20 17  1  0
 21 22  2  0
 22 23  1  0
 21 24  1  0
 23 26  1  0
 24 25  1  0
 25 27  1  0
 26 27  1  0
 23 28  2  0
 25 29  2  0
 30 31  2  0
 31 32  1  0
 32 33  2  0
 33 34  1  0
 34 35  2  0
 35 30  1  0
 24 30  1  0
 34 36  1  0
 36 37  1  0
 37 38  1  0
 37 39  2  0
 38 40  2  0
 26 41  1  0
 27 42  1  0
 42 43  1  0
 42 44  1  0
M  END
> <chembl_id>
CHEMBL3219129

$$$$

  SciTegic05221516342D

 27 30  0  0  0  0            999 V2000
   16.8598   -5.9313    0.0000 N   0  0
   14.8168   -5.2263    0.0000 C   0  0
   15.6340   -5.2263    0.0000 N   0  0
   16.0426   -5.9313    0.0000 C   0  0
   15.6340   -6.6404    0.0000 C   0  0
   14.8168   -6.6404    0.0000 C   0  0
   14.4082   -5.9313    0.0000 N   0  0
   14.4082   -4.5172    0.0000 N   0  0
   13.5910   -4.5172    0.0000 C   0  0
   13.1825   -3.8082    0.0000 C   0  0
   13.5910   -3.1032    0.0000 C   0  0
   14.4082   -3.1032    0.0000 C   0  0
   14.8168   -3.8082    0.0000 C   0  0
   13.1825   -2.3941    0.0000 O   0  0
   12.3653   -2.3941    0.0000 C   0  0
   17.2684   -3.8082    0.0000 C   0  0
   18.0856   -3.8082    0.0000 C   0  0
   18.4942   -4.5172    0.0000 C   0  0
   18.0856   -5.2263    0.0000 C   0  0
   17.2684   -5.2263    0.0000 C   0  0
   16.8598   -4.5172    0.0000 N   0  0
   19.3766   -3.5361    0.0000 C   0  0
   18.6334   -3.2017    0.0000 N   0  0
   19.2926   -4.3465    0.0000 N   0  0
   19.8991   -4.8943    0.0000 C   0  0
   20.6864   -4.6812    0.0000 C   0  0
   19.7283   -5.6927    0.0000 C   0  0
  2  3  1  0
  3  4  2  0
  4  5  1  0
  5  6  2  0
  6  7  1  0
  2  7  2  0
  8  9  1  0
  9 10  1  0
 10 11  1  0
 11 12  1  0
 12 13  1  0
  8 13  1  0
 14 15  1  0
 11 14  1  0
  2  8  1  0
  1  4  1  0
 16 17  1  0
 17 18  2  0
 18 19  1  0
 19 20  2  0
 20 21  1  0
 16 21  2  0
 22 23  2  0
 22 24  1  0
 17 23  1  0
 18 24  1  0
 25 26  1  0
 25 27  1  0
 24 25  1  0
  1 20  1  0
M  END
> <chembl_id>
CHEMBL3354190

$$$$

  SciTegic09261414462D

 31 34  0  0  0  0            999 V2000
   31.1851  -16.1443    0.0000 N   0  0
   31.8947  -15.7348    0.0000 C   0  0
   31.8919  -14.9122    0.0000 N   0  0
   31.1833  -14.5069    0.0000 C   0  0
   30.4770  -15.7353    0.0000 C   0  0
   30.4782  -14.9188    0.0000 C   0  0
   29.7020  -14.6653    0.0000 C   0  0
   29.2211  -15.3252    0.0000 C   0  0
   29.7001  -15.9864    0.0000 S   0  0
   31.1795  -13.6897    0.0000 N   0  0
   31.8853  -13.2779    0.0000 C   0  0
   32.5927  -13.6880    0.0000 C   0  0
   33.2981  -13.2768    0.0000 C   0  0
   33.2948  -12.4588    0.0000 C   0  0
   32.5802  -12.0536    0.0000 C   0  0
   31.8778  -12.4671    0.0000 C   0  0
   28.4039  -15.3240    0.0000 N   0  0
   27.9963  -14.6157    0.0000 C   0  0
   27.1791  -14.6145    0.0000 C   0  0
   28.4059  -13.9086    0.0000 O   0  0
   34.0000  -12.0460    0.0000 F   0  0
   34.0075  -13.6825    0.0000 Cl  0  0
   26.7715  -13.9062    0.0000 C   0  0
   25.9543  -13.9050    0.0000 C   0  0
   25.5468  -13.1967    0.0000 N   0  0
   25.9607  -12.4935    0.0000 C   0  0
   25.5566  -11.7873    0.0000 C   0  0
   24.7391  -11.7819    0.0000 C   0  0
   24.3273  -12.4888    0.0000 C   0  0
   24.7330  -13.2012    0.0000 C   0  0
   24.3342  -11.0720    0.0000 F   0  0
  5  1  1  0
  1  2  2  0
  2  3  1  0
  3  4  2  0
  4  6  1  0
  5  6  2  0
  6  7  1  0
  7  8  2  0
  8  9  1  0
  9  5  1  0
  4 10  1  0
 10 11  1  0
 11 12  2  0
 12 13  1  0
 13 14  2  0
 14 15  1  0
 15 16  2  0
 16 11  1  0
  8 17  1  0
 17 18  1  0
 18 19  1  0
 18 20  2  0
 14 21  1  0
 13 22  1  0
 19 23  2  0
 23 24  1  0
 24 25  1  0
 25 26  1  0
 25 30  1  0
 26 27  1  0
 27 28  1  0
 28 29  1  0
 29 30  1  0
 28 31  1  0
M  END
> <chembl_id>
CHEMBL3233786

$$$$

  SciTegic02271217242D

 30 33  0  0  0  0            999 V2000
   -3.3461   -9.4194    0.0000 N   0  0
   -2.6297   -9.0060    0.0000 C   0  0
   -2.6325   -8.1755    0.0000 N   0  0
   -3.3479   -7.7664    0.0000 C   0  0
   -4.0609   -9.0065    0.0000 C   0  0
   -4.0597   -8.1776    0.0000 C   0  0
   -4.8477   -7.9202    0.0000 N   0  0
   -5.3359   -8.5901    0.0000 C   0  0
   -4.8497   -9.2614    0.0000 C   0  0
   -3.3497   -6.9414    0.0000 N   0  0
   -2.6362   -6.5273    0.0000 C   0  0
   -1.9239   -6.9412    0.0000 C   0  0
   -1.2108   -6.5278    0.0000 C   0  0
   -1.2122   -5.7019    0.0000 C   0  0
   -1.9326   -5.2912    0.0000 C   0  0
   -2.6427   -5.7069    0.0000 C   0  0
   -0.4956   -6.9391    0.0000 Cl  0  0
   -0.4992   -5.2869    0.0000 O   0  0
   -5.1014   -7.1352    0.0000 C   0  0
    0.2168   -5.6969    0.0000 C   0  0
    0.2168   -6.5219    0.0000 C   0  0
    0.9319   -6.9318    0.0000 C   0  0
    1.6459   -6.5167    0.0000 C   0  0
    1.6403   -5.6875    0.0000 C   0  0
    0.9246   -5.2813    0.0000 C   0  0
    2.3518   -5.2700    0.0000 O   0  0
    3.0692   -5.6774    0.0000 C   0  0
    3.7807   -5.2599    0.0000 F   0  0
    3.0750   -6.5024    0.0000 F   0  0
    3.7792   -6.0875    0.0000 F   0  0
 14 15  1  0
  3  4  2  0
 15 16  2  0
 16 11  1  0
  6  7  1  0
 13 17  1  0
  7  8  1  0
 14 18  1  0
  8  9  2  0
  7 19  1  0
  9  5  1  0
 18 20  1  0
  4  6  1  0
 20 21  2  0
  4 10  1  0
 21 22  1  0
  5  6  2  0
 22 23  2  0
 10 11  1  0
 23 24  1  0
  1  2  2  0
 24 25  2  0
 25 20  1  0
 11 12  2  0
 24 26  1  0
  5  1  1  0
 26 27  1  0
 12 13  1  0
 27 28  1  0
  2  3  1  0
 27 29  1  0
 13 14  2  0
 27 30  1  0
M  END
> <chembl_id>
CHEMBL1923005

$$$$

  SciTegic12091611192D

 31 34  0  0  0  0            999 V2000
   -3.6217    1.4865    0.0000 N   0  0
   -7.5133    0.6990    0.0000 C   0  0
   -6.2219    1.4621    0.0000 N   0  0
   -4.9153    0.7255    0.0000 C   0  0
   -4.9001   -0.7745    0.0000 C   0  0
   -6.1914   -1.5377    0.0000 C   0  0
   -7.4980   -0.8010    0.0000 N   0  0
   -8.8205    1.4361    0.0000 N   0  0
   -8.8383    2.9360    0.0000 C   0  0
  -10.1461    3.6707    0.0000 C   0  0
  -11.4362    2.9055    0.0000 C   0  0
  -11.4185    1.4056    0.0000 C   0  0
  -10.1108    0.6709    0.0000 C   0  0
   -1.0028   -1.5132    0.0000 C   0  0
    0.2917   -0.7475    0.0000 C   0  0
    0.2917    0.7475    0.0000 C   0  0
   -1.0028    1.5132    0.0000 C   0  0
   -2.3155    0.7475    0.0000 C   0  0
   -2.3155   -0.7475    0.0000 N   0  0
    2.5889    0.0182    0.0000 C   0  0
    1.7138   -1.2033    0.0000 N   0  0
    1.7138    1.2033    0.0000 N   0  0
    3.7889    0.0269    0.0000 C   0  0
    2.1812    2.6271    0.0000 C   0  0
    3.3556    2.8737    0.0000 C   0  0
    1.3808    3.5211    0.0000 C   0  0
  -11.4173    4.3861    0.0000 O   0  0
  -12.6905    2.1191    0.0000 C   0  0
  -12.4631    4.9746    0.0000 C   0  0
  -12.6735    0.6184    0.0000 C   0  0
  -13.7054    0.0060    0.0000 N   0  0
  2  3  1  0
  3  4  2  0
  4  5  1  0
  5  6  2  0
  6  7  1  0
  2  7  2  0
  8  9  1  0
  9 10  1  0
 10 11  1  0
 11 12  1  0
 12 13  1  0
  8 13  1  0
  2  8  1  0
  1  4  1  0
 14 15  1  0
 15 16  2  0
 16 17  1  0
 17 18  2  0
 18 19  1  0
 14 19  2  0
 20 21  2  0
 20 22  1  0
 15 21  1  0
 16 22  1  0
  1 18  1  0
 20 23  1  0
 22 24  1  0
 24 25  1  0
 24 26  1  0
 11 27  1  0
 11 28  1  0
 27 29  1  0
 28 30  1  0
 30 31  1  0
M  END
> <chembl_id>
CHEMBL3736430

$$$$

  SciTegic05061409512D

 24 26  0  0  0  0            999 V2000
   33.8306  -10.1020    0.0000 N   0  0
   34.5403   -9.6926    0.0000 C   0  0
   34.5375   -8.8699    0.0000 N   0  0
   33.8288   -8.4646    0.0000 C   0  0
   33.1226   -9.6930    0.0000 C   0  0
   33.1249   -8.8712    0.0000 C   0  0
   32.4154   -8.4600    0.0000 C   0  0
   31.7031   -8.8696    0.0000 C   0  0
   31.7048   -9.6947    0.0000 C   0  0
   32.4149  -10.1021    0.0000 C   0  0
   33.8271   -7.6475    0.0000 N   0  0
   30.9953   -8.4612    0.0000 N   0  0
   30.2877   -8.8699    0.0000 C   0  0
   29.5799   -8.4614    0.0000 C   0  0
   30.2878   -9.6871    0.0000 O   0  0
   28.8723   -8.8701    0.0000 C   0  0
   34.5340   -7.2374    0.0000 C   0  0
   35.2429   -7.6496    0.0000 C   0  0
   35.9493   -7.2402    0.0000 C   0  0
   35.9480   -6.4221    0.0000 C   0  0
   35.2345   -6.0152    0.0000 C   0  0
   34.5310   -6.4269    0.0000 C   0  0
   36.6543   -6.0111    0.0000 C   0  0
   37.3634   -6.4173    0.0000 C   0  0
  5  1  1  0
  1  2  2  0
  2  3  1  0
  3  4  2  0
  4  6  1  0
  5  6  1  0
  6  7  2  0
  7  8  1  0
  8  9  2  0
  9 10  1  0
 10  5  2  0
  4 11  1  0
  8 12  1  0
 12 13  1  0
 13 14  1  0
 13 15  2  0
 14 16  2  0
 11 17  1  0
 17 18  2  0
 18 19  1  0
 19 20  2  0
 20 21  1  0
 21 22  2  0
 22 17  1  0
 20 23  1  0
 23 24  1  0
M  END
> <chembl_id>
CHEMBL3133909

$$$$

  SciTegic05221516342D

 37 40  0  0  0  0            999 V2000
   21.6707  -22.7410    0.0000 C   0  0
   21.6695  -23.5605    0.0000 C   0  0
   22.3776  -23.9695    0.0000 N   0  0
   23.0872  -23.5601    0.0000 C   0  0
   23.0844  -22.7374    0.0000 N   0  0
   22.3758  -22.3321    0.0000 C   0  0
   22.3739  -21.5150    0.0000 C   0  0
   23.0335  -21.0327    0.0000 C   0  0
   22.7787  -20.2562    0.0000 N   0  0
   21.7113  -21.0366    0.0000 C   0  0
   21.9582  -20.2555    0.0000 N   0  0
   21.4081  -19.6545    0.0000 C   0  0
   20.6084  -19.8290    0.0000 C   0  0
   20.3615  -20.6101    0.0000 C   0  0
   20.9145  -21.2168    0.0000 C   0  0
   20.9629  -22.3326    0.0000 Cl  0  0
   23.7956  -23.9675    0.0000 N   0  0
   24.5026  -23.5578    0.0000 C   0  0
   25.2077  -23.9658    0.0000 C   0  0
   25.9142  -23.5567    0.0000 C   0  0
   25.9134  -22.7387    0.0000 C   0  0
   25.2001  -22.3313    0.0000 C   0  0
   24.4964  -22.7427    0.0000 C   0  0
   25.2077  -24.7829    0.0000 O   0  0
   24.5001  -25.1916    0.0000 C   0  0
   25.1959  -21.5142    0.0000 N   0  0
   24.4861  -21.1092    0.0000 C   0  0
   24.4820  -20.2920    0.0000 C   0  0
   23.7805  -21.5214    0.0000 O   0  0
   25.1876  -19.8798    0.0000 C   0  0
   26.6199  -22.3280    0.0000 N   0  0
   27.3288  -22.7346    0.0000 C   0  0
   26.6176  -21.5108    0.0000 C   0  0
   27.3312  -23.5517    0.0000 C   0  0
   28.0401  -23.9583    0.0000 N   0  0
   28.0424  -24.7755    0.0000 C   0  0
   28.7466  -23.5476    0.0000 C   0  0
  1  2  2  0
  2  3  1  0
  3  4  2  0
  4  5  1  0
  5  6  2  0
  6  1  1  0
  7  8  1  0
  8  9  2  0
  9 11  1  0
 10  7  2  0
  6  7  1  0
 10 11  1  0
 10 15  1  0
 11 12  1  0
 12 13  2  0
 13 14  1  0
 14 15  2  0
  1 16  1  0
  4 17  1  0
 17 18  1  0
 18 19  2  0
 19 20  1  0
 20 21  2  0
 21 22  1  0
 22 23  2  0
 23 18  1  0
 19 24  1  0
 24 25  1  0
 22 26  1  0
 26 27  1  0
 27 28  1  0
 27 29  2  0
 28 30  2  0
 21 31  1  0
 31 32  1  0
 31 33  1  0
 32 34  1  0
 34 35  1  0
 35 36  1  0
 35 37  1  0
M  END
> <chembl_id>
CHEMBL3353404

$$$$

  SciTegic06051313552D

 39 42  0  0  0  0            999 V2000
    8.2895  -11.5875    0.0000 N   0  0
    9.0040  -12.0001    0.0000 C   0  0
    9.7184  -11.5875    0.0000 C   0  0
    9.7184  -10.7625    0.0000 N   0  0
    9.3030   -9.4942    0.0000 C   0  0
    9.0503  -10.2807    0.0000 C   0  0
   10.1292   -9.4929    0.0000 C   0  0
   10.3806  -10.2786    0.0000 C   0  0
   11.1850  -10.4522    0.0000 C   0  0
   11.7388   -9.8412    0.0000 N   0  0
   11.4826   -9.0539    0.0000 C   0  0
   10.6788   -8.8839    0.0000 N   0  0
    7.5750  -12.0001    0.0000 C   0  0
    6.8606  -11.5875    0.0000 C   0  0
    7.5750  -12.8251    0.0000 O   0  0
    6.1461  -12.0001    0.0000 C   0  0
   11.6112  -11.1584    0.0000 N   0  0
   12.4361  -11.1430    0.0000 C   0  0
   12.8565  -11.8502    0.0000 C   0  0
   13.6806  -11.8353    0.0000 C   0  0
   14.0805  -11.1127    0.0000 C   0  0
   13.6503  -10.4037    0.0000 C   0  0
   12.8276  -10.4222    0.0000 C   0  0
   14.0468   -9.6803    0.0000 Cl  0  0
   14.9054  -11.0962    0.0000 O   0  0
   15.3035  -10.3737    0.0000 C   0  0
   16.1267  -10.3592    0.0000 C   0  0
   16.5248   -9.6375    0.0000 C   0  0
   16.0981   -8.9304    0.0000 C   0  0
   15.2690   -8.9497    0.0000 C   0  0
   14.8747   -9.6719    0.0000 C   0  0
   14.8399   -8.2451    0.0000 C   0  0
   15.2354   -7.5210    0.0000 F   0  0
   14.0150   -8.2644    0.0000 F   0  0
   14.4209   -7.5251    0.0000 F   0  0
    5.4316  -11.5875    0.0000 C   0  0
    4.7172  -12.0001    0.0000 N   0  0
    4.0027  -11.5875    0.0000 C   0  0
    4.7172  -12.8251    0.0000 C   0  0
  1  2  1  0
  2  3  1  0
  3  4  1  0
  4  8  1  0
  7  5  1  0
  5  6  2  0
  6  4  1  0
  7  8  2  0
  8  9  1  0
  9 10  2  0
 10 11  1  0
 11 12  2  0
 12  7  1  0
  1 13  1  0
 13 14  1  0
 13 15  2  0
 14 16  2  0
  9 17  1  0
 17 18  1  0
 18 19  2  0
 19 20  1  0
 20 21  2  0
 21 22  1  0
 22 23  2  0
 23 18  1  0
 22 24  1  0
 21 25  1  0
 25 26  1  0
 26 27  2  0
 27 28  1  0
 28 29  2  0
 29 30  1  0
 30 31  2  0
 31 26  1  0
 30 32  1  0
 32 33  1  0
 32 34  1  0
 32 35  1  0
 16 36  1  0
 36 37  1  0
 37 38  1  0
 37 39  1  0
M  END
> <chembl_id>
CHEMBL2322329

$$$$

  SciTegic12121614122D

 40 44  0  0  0  0            999 V2000
   -1.2913    7.5063    0.0000 C   0  0
   -2.5882    8.2616    0.0000 C   0  0
   -2.5845    9.4615    0.0000 C   0  0
   -0.2500    8.1028    0.0000 O   0  0
   -1.2959    6.0055    0.0000 N   0  0
    0.0011    5.2503    0.0000 C   0  0
   -0.0014    3.7503    0.0000 C   0  0
    1.2964    2.9980    0.0000 C   0  0
    2.5967    3.7460    0.0000 C   0  0
    2.5992    5.2460    0.0000 C   0  0
    1.3014    5.9981    0.0000 C   0  0
   -2.6111    0.7486    0.0000 C   0  0
   -1.2964    1.4973    0.0000 N   0  0
    0.0000    0.7486    0.0000 C   0  0
    0.0000   -0.7486    0.0000 C   0  0
   -1.2964   -1.4973    0.0000 C   0  0
   -2.6111   -0.7486    0.0000 N   0  0
    1.2964   -1.4973    0.0000 C   0  0
    2.5929   -0.7486    0.0000 C   0  0
    2.5929    0.7486    0.0000 C   0  0
    1.2964    1.4973    0.0000 N   0  0
    3.6321    1.3486    0.0000 O   0  0
    1.2964   -2.6973    0.0000 C   0  0
   -3.9122    1.4966    0.0000 N   0  0
   -5.2109    0.7445    0.0000 C   0  0
   -6.5125    1.4901    0.0000 C   0  0
   -7.8091    0.7359    0.0000 C   0  0
   -7.8042   -0.7641    0.0000 C   0  0
   -6.5027   -1.5098    0.0000 C   0  0
   -5.2061   -0.7556    0.0000 C   0  0
   -9.1014   -1.5188    0.0000 N   0  0
  -10.4041   -0.7752    0.0000 C   0  0
  -11.6995   -1.5315    0.0000 C   0  0
  -11.6922   -3.0315    0.0000 N   0  0
  -10.3895   -3.7751    0.0000 C   0  0
   -9.0942   -3.0188    0.0000 C   0  0
  -12.7285   -3.6365    0.0000 C   0  0
   -6.5206    2.9910    0.0000 O   0  0
   -7.8239    3.7352    0.0000 C   0  0
   -7.8304    4.9352    0.0000 C   0  0
  1  2  1  0
  2  3  2  0
  1  4  2  0
  1  5  1  0
  6  7  1  0
  7  8  2  0
  8  9  1  0
  9 10  2  0
 10 11  1  0
  6 11  2  0
 12 13  1  0
 13 14  2  0
 14 15  1  0
 15 16  2  0
 16 17  1  0
 12 17  2  0
 18 19  2  0
 19 20  1  0
 20 21  1  0
 14 21  1  0
 15 18  1  0
 20 22  2  0
 18 23  1  0
 25 26  1  0
 26 27  2  0
 27 28  1  0
 28 29  2  0
 29 30  1  0
 25 30  2  0
 31 32  1  0
 32 33  1  0
 33 34  1  0
 34 35  1  0
 35 36  1  0
 31 36  1  0
 34 37  1  0
 28 31  1  0
 39 40  1  0
 38 39  1  0
 26 38  1  0
 24 25  1  0
 12 24  1  0
  8 21  1  0
  5  6  1  0
M  END
> <chembl_id>
CHEMBL3754564

$$$$

  SciTegic12091614152D

 33 35  0  0  0  0            999 V2000
    1.2990   -0.7500    0.0000 C   0  0
    1.2990    0.7500    0.0000 C   0  0
    0.0000    1.5000    0.0000 C   0  0
   -1.2990    0.7500    0.0000 C   0  0
   -1.2990   -0.7500    0.0000 C   0  0
    0.0000   -1.5000    0.0000 C   0  0
    2.5973   -1.5031    0.0000 N   0  0
   -0.0031    3.0008    0.0000 N   0  0
    1.2883   -5.2495    0.0000 C   0  0
    1.2935   -3.7495    0.0000 N   0  0
    2.5951   -3.0039    0.0000 C   0  0
    3.8915   -3.7585    0.0000 C   0  0
    3.8864   -5.2585    0.0000 C   0  0
    2.5847   -6.0040    0.0000 N   0  0
   -0.0125   -5.9981    0.0000 N   0  0
   -0.0155   -7.4989    0.0000 N   0  0
   -1.3163   -8.2475    0.0000 C   0  0
   -1.3194   -9.7484    0.0000 C   0  0
   -2.6184  -10.4985    0.0000 C   0  0
   -2.6184  -11.9985    0.0000 C   0  0
   -1.3193  -12.7484    0.0000 C   0  0
   -0.0203  -11.9984    0.0000 C   0  0
   -0.0203  -10.4984    0.0000 C   0  0
    4.9329   -3.1621    0.0000 Cl  0  0
   -1.3039    3.7494    0.0000 C   0  0
   -2.3421    3.1476    0.0000 O   0  0
   -1.3070    5.2502    0.0000 C   0  0
   -2.6078    5.9988    0.0000 C   0  0
   -3.6577   -9.8985    0.0000 F   0  0
   -2.6109    7.4996    0.0000 C   0  0
   -3.9118    8.2481    0.0000 N   0  0
   -3.9142    9.4481    0.0000 C   0  0
   -4.9499    7.6463    0.0000 C   0  0
  1  2  1  0
  2  3  2  0
  3  4  1  0
  4  5  2  0
  5  6  1  0
  1  6  2  0
  1  7  1  0
  3  8  1  0
  9 10  1  0
 10 11  2  0
 11 12  1  0
 12 13  2  0
 13 14  1  0
  9 14  2  0
 15 16  1  0
 17 18  1  0
 18 19  1  0
 19 20  2  0
 20 21  1  0
 21 22  2  0
 22 23  1  0
 18 23  2  0
 16 17  2  0
  9 15  1  0
 12 24  1  0
  7 11  1  0
  8 25  1  0
 25 26  2  0
 25 27  1  0
 27 28  2  0
 19 29  1  0
 28 30  1  0
 30 31  1  0
 31 32  1  0
 31 33  1  0
M  END
> <chembl_id>
CHEMBL3741436

$$$$

  SciTegic12201611502D

 29 32  0  0  0  0            999 V2000
   -2.1332   -2.2973    0.0000 N   0  0
   -3.4277   -1.5498    0.0000 C   0  0
   -3.4277    0.0000    0.0000 N   0  0
   -2.1332    0.6928    0.0000 C   0  0
   -0.8205    0.0000    0.0000 C   0  0
    0.4558    0.6928    0.0000 C   0  0
    1.7503    0.0000    0.0000 C   0  0
    1.7503   -1.5498    0.0000 C   0  0
    0.4558   -2.2973    0.0000 C   0  0
   -0.8205   -1.5498    0.0000 C   0  0
    0.4558    2.1879    0.0000 O   0  0
    3.0631    0.6928    0.0000 O   0  0
    3.0631    2.1879    0.0000 C   0  0
    1.7503    2.9537    0.0000 C   0  0
   -2.1454    2.1947    0.0000 N   0  0
   -3.4508    2.9353    0.0000 C   0  0
   -3.4653    4.4352    0.0000 C   0  0
   -4.7714    5.1728    0.0000 C   0  0
   -6.0632    4.4104    0.0000 C   0  0
   -6.0489    2.9104    0.0000 C   0  0
   -4.7427    2.1729    0.0000 C   0  0
   -4.7827    6.6736    0.0000 N   0  3
   -3.7484    7.2820    0.0000 O   0  0
   -5.8266    7.2654    0.0000 O   0  5
   -7.1082    5.0004    0.0000 C   0  0
    3.0410   -2.3153    0.0000 O   0  0
    3.0239   -3.8160    0.0000 C   0  0
    4.0559   -4.4284    0.0000 C   0  0
    1.9778   -4.4039    0.0000 C   0  0
  1  2  1  0
  2  3  2  0
  3  4  1  0
  4  5  2  0
  5  6  1  0
  6  7  2  0
  7  8  1  0
  8  9  2  0
  9 10  1  0
  1 10  2  0
  5 10  1  0
 12 13  1  0
 13 14  1  0
 11 14  1  0
  6 11  1  0
  7 12  1  0
  4 15  1  0
 16 17  1  0
 17 18  2  0
 18 19  1  0
 19 20  2  0
 20 21  1  0
 16 21  2  0
 22 23  2  0
 22 24  1  0
 18 22  1  0
 19 25  1  0
 15 16  1  0
 27 28  1  0
 27 29  1  0
 26 27  1  0
  8 26  1  0
M  CHG  2  22   1  24  -1
M  END
> <chembl_id>
CHEMBL3805089

$$$$

  SciTegic12191611242D

 35 39  0  0  0  0            999 V2000
   -3.7060   11.6880    0.0000 C   0  0
   -3.6953   10.4880    0.0000 N   0  0
   -4.9876    9.7265    0.0000 C   0  0
   -4.9742    8.2265    0.0000 C   0  0
   -2.3896    9.7496    0.0000 C   0  0
   -2.3763    8.2497    0.0000 C   0  0
   -3.6686    7.4880    0.0000 N   0  0
   -3.6576    5.9873    0.0000 C   0  0
   -2.3531    5.2468    0.0000 C   0  0
   -2.3421    3.7469    0.0000 C   0  0
   -4.9511    5.2278    0.0000 C   0  0
   -4.9401    3.7278    0.0000 C   0  0
   -3.6356    2.9873    0.0000 C   0  0
   -3.6217    1.4865    0.0000 N   0  0
   -2.3155    0.7475    0.0000 C   0  0
   -1.0028    1.5132    0.0000 N   0  0
    0.2917    0.7475    0.0000 C   0  0
    0.2917   -0.7475    0.0000 C   0  0
    1.7138   -1.2033    0.0000 C   0  0
    2.5889    0.0182    0.0000 C   0  0
    1.7138    1.2033    0.0000 N   0  0
   -1.0028   -1.5132    0.0000 C   0  0
   -0.9971   -3.0138    0.0000 O   0  0
   -2.2935   -3.7700    0.0000 C   0  0
   -2.2901   -5.2700    0.0000 C   0  0
   -3.5873   -6.0231    0.0000 C   0  0
   -4.8881   -5.2761    0.0000 C   0  0
   -4.8917   -3.7761    0.0000 C   0  0
   -6.1917   -3.0261    0.0000 N   0  0
   -6.1931   -1.5253    0.0000 C   0  0
   -7.4931   -0.7753    0.0000 C   0  0
   -7.4942    0.4247    0.0000 C   0  0
   -5.1543   -0.9247    0.0000 O   0  0
   -3.5944   -3.0231    0.0000 C   0  0
   -2.3155   -0.7475    0.0000 N   0  0
  1  2  1  0
  2  3  1  0
  3  4  1  0
  2  5  1  0
  5  6  1  0
  6  7  1  0
  4  7  1  0
  7  8  1  0
  8  9  1  0
  9 10  2  0
  8 11  2  0
 11 12  1  0
 12 13  2  0
 10 13  1  0
 13 14  1  0
 14 15  1  0
 15 16  2  0
 16 17  1  0
 17 18  2  0
 18 19  1  0
 19 20  2  0
 20 21  1  0
 17 21  1  0
 18 22  1  0
 22 23  1  0
 23 24  1  0
 24 25  2  0
 25 26  1  0
 26 27  2  0
 27 28  1  0
 28 29  1  0
 29 30  1  0
 30 31  1  0
 31 32  2  0
 30 33  2  0
 28 34  2  0
 24 34  1  0
 22 35  2  0
 15 35  1  0
M  END
> <chembl_id>
CHEMBL3787662

$$$$

  SciTegic12201615542D

 40 45  0  0  0  0            999 V2000
    1.5297   -7.7799    0.0000 C   0  0
    0.6223   -8.9753    0.0000 C   0  0
    2.7202   -7.9307    0.0000 O   0  0
    0.9491   -6.3959    0.0000 N   0  0
    1.8565   -5.2005    0.0000 C   0  0
    1.2781   -3.8165    0.0000 C   0  0
    2.1852   -2.6281    0.0000 C   0  0
    3.6753   -2.8147    0.0000 C   0  0
    4.2537   -4.1987    0.0000 C   0  0
    3.3443   -5.3916    0.0000 C   0  0
    2.5889    0.0182    0.0000 C   0  0
    1.7138   -1.2033    0.0000 N   0  0
    0.2917   -0.7475    0.0000 C   0  0
    0.2917    0.7475    0.0000 C   0  0
    1.7138    1.2033    0.0000 N   0  0
   -1.0028    1.5132    0.0000 C   0  0
   -2.3155    0.7475    0.0000 C   0  0
   -2.3155   -0.7475    0.0000 C   0  0
   -1.0028   -1.5132    0.0000 C   0  0
    4.0896    0.0290    0.0000 C   0  0
    4.9234    1.2700    0.0000 C   0  0
    4.7453   -1.3220    0.0000 N   0  0
    6.4199    1.1671    0.0000 N   0  0
    7.0791   -0.1803    0.0000 C   0  0
    6.2418   -1.4248    0.0000 C   0  0
    7.2286   -5.1568    0.0000 N   0  0
    8.5770   -4.4998    0.0000 N   0  0
    8.3688   -3.0143    0.0000 C   0  0
    6.9013   -2.7729    0.0000 C   0  0
    6.1870   -4.0774    0.0000 C   0  0
    6.2216   -9.5371    0.0000 N   0  0
    7.6659   -9.1322    0.0000 C   0  0
    8.0374   -7.6789    0.0000 C   0  0
    6.9674   -6.6347    0.0000 C   0  0
    5.5202   -7.0355    0.0000 C   0  0
    5.1488   -8.4888    0.0000 C   0  0
    5.9245  -10.6998    0.0000 C   0  0
    4.3957    2.3477    0.0000 N   0  0
    1.0866  -10.0818    0.0000 C   0  0
    0.0879   -3.6632    0.0000 F   0  0
  1  2  1  0
  1  3  2  0
  1  4  1  0
  5  6  1  0
  6  7  2  0
  7  8  1  0
  8  9  2  0
  9 10  1  0
  5 10  2  0
 11 12  1  0
 12 13  1  0
 13 14  1  0
 14 15  1  0
 11 15  2  0
 16 17  1  0
 17 18  2  0
 18 19  1  0
 13 19  2  0
 14 16  2  0
 20 21  1  0
 20 22  2  0
 21 23  2  0
 23 24  1  0
 24 25  2  0
 22 25  1  0
 26 27  1  0
 27 28  2  0
 28 29  1  0
 29 30  2  0
 26 30  1  0
 31 32  1  0
 32 33  1  0
 33 34  1  0
 34 35  1  0
 35 36  1  0
 31 36  1  0
 31 37  1  0
 26 34  1  0
 25 29  1  0
 21 38  1  0
 11 20  1  0
  7 12  1  0
  4  5  1  0
  2 39  2  0
  6 40  1  0
M  END
> <chembl_id>
CHEMBL3814957

$$$$

  SciTegic09261414462D

 31 34  0  0  0  0            999 V2000
   31.1644  -21.9100    0.0000 N   0  0
   31.8741  -21.5006    0.0000 C   0  0
   31.8713  -20.6779    0.0000 N   0  0
   31.1626  -20.2726    0.0000 C   0  0
   30.4564  -21.5010    0.0000 C   0  0
   30.4576  -20.6845    0.0000 C   0  0
   29.6814  -20.4310    0.0000 C   0  0
   29.2004  -21.0909    0.0000 C   0  0
   29.6794  -21.7521    0.0000 S   0  0
   31.1589  -19.4555    0.0000 N   0  0
   31.8647  -19.0436    0.0000 C   0  0
   32.5721  -19.4537    0.0000 C   0  0
   33.2774  -19.0426    0.0000 C   0  0
   33.2741  -18.2245    0.0000 C   0  0
   32.5596  -17.8194    0.0000 C   0  0
   31.8571  -18.2329    0.0000 C   0  0
   28.3832  -21.0897    0.0000 N   0  0
   27.9757  -20.3814    0.0000 C   0  0
   27.1585  -20.3802    0.0000 C   0  0
   28.3853  -19.6743    0.0000 O   0  0
   33.9794  -17.8117    0.0000 F   0  0
   33.9868  -19.4482    0.0000 Cl  0  0
   26.7509  -19.6719    0.0000 C   0  0
   25.9337  -19.6707    0.0000 C   0  0
   25.5261  -18.9624    0.0000 N   0  0
   25.9400  -18.2592    0.0000 C   0  0
   25.5359  -17.5530    0.0000 C   0  0
   24.7184  -17.5476    0.0000 N   0  0
   24.3066  -18.2546    0.0000 C   0  0
   24.7124  -18.9669    0.0000 C   0  0
   24.3135  -16.8378    0.0000 C   0  0
  5  1  1  0
  1  2  2  0
  2  3  1  0
  3  4  2  0
  4  6  1  0
  5  6  2  0
  6  7  1  0
  7  8  2  0
  8  9  1  0
  9  5  1  0
  4 10  1  0
 10 11  1  0
 11 12  2  0
 12 13  1  0
 13 14  2  0
 14 15  1  0
 15 16  2  0
 16 11  1  0
  8 17  1  0
 17 18  1  0
 18 19  1  0
 18 20  2  0
 14 21  1  0
 13 22  1  0
 19 23  2  0
 23 24  1  0
 24 25  1  0
 25 26  1  0
 25 30  1  0
 26 27  1  0
 27 28  1  0
 28 29  1  0
 29 30  1  0
 28 31  1  0
M  END
> <chembl_id>
CHEMBL3233789

$$$$

  SciTegic05061409512D

 31 34  0  0  0  0            999 V2000
   25.8117  -11.7874    0.0000 O   0  0
   26.2244  -12.4972    0.0000 S   0  0
   26.6328  -11.7849    0.0000 O   0  0
   23.4011  -16.5900    0.0000 N   0  0
   24.1108  -16.1806    0.0000 C   0  0
   24.1079  -15.3579    0.0000 N   0  0
   23.3993  -14.9526    0.0000 C   0  0
   22.6931  -16.1810    0.0000 C   0  0
   22.6954  -15.3592    0.0000 C   0  0
   21.9859  -14.9480    0.0000 C   0  0
   21.2736  -15.3576    0.0000 C   0  0
   21.2753  -16.1827    0.0000 C   0  0
   21.9854  -16.5901    0.0000 C   0  0
   23.3976  -14.1355    0.0000 N   0  0
   20.5658  -14.9492    0.0000 N   0  0
   19.8582  -15.3579    0.0000 C   0  0
   19.1504  -14.9494    0.0000 C   0  0
   19.8583  -16.1751    0.0000 O   0  0
   18.4428  -15.3581    0.0000 C   0  0
   24.1045  -13.7254    0.0000 C   0  0
   24.8134  -14.1376    0.0000 C   0  0
   25.5198  -13.7282    0.0000 C   0  0
   25.5185  -12.9101    0.0000 C   0  0
   24.8050  -12.5032    0.0000 C   0  0
   24.1015  -12.9149    0.0000 C   0  0
   26.9339  -12.9053    0.0000 N   0  0
   26.9353  -13.7225    0.0000 C   0  0
   26.2782  -14.2064    0.0000 N   0  0
   26.5321  -14.9832    0.0000 C   0  0
   27.3493  -14.9818    0.0000 C   0  0
   27.6004  -14.2041    0.0000 S   0  0
  2  1  2  0
  3  2  2  0
  8  4  1  0
  4  5  2  0
  5  6  1  0
  6  7  2  0
  7  9  1  0
  8  9  1  0
  9 10  2  0
 10 11  1  0
 11 12  2  0
 12 13  1  0
 13  8  2  0
  7 14  1  0
 11 15  1  0
 15 16  1  0
 16 17  1  0
 16 18  2  0
 17 19  2  0
 14 20  1  0
 20 21  2  0
 21 22  1  0
 22 23  2  0
 23 24  1  0
 24 25  2  0
 25 20  1  0
 23  2  1  0
  2 26  1  0
 26 27  1  0
 27 28  2  0
 28 29  1  0
 29 30  2  0
 30 31  1  0
 31 27  1  0
M  END
> <chembl_id>
CHEMBL3133912

$$$$

  SciTegic11081110012D

 42 45  0  0  0  0            999 V2000
   15.3027   -2.7583    0.0000 C   0  0
   15.3016   -3.5857    0.0000 C   0  0
   16.0164   -3.9985    0.0000 C   0  0
   16.7328   -3.5852    0.0000 C   0  0
   16.7300   -2.7547    0.0000 C   0  0
   16.0146   -2.3455    0.0000 C   0  0
   14.5798   -2.3293    0.0000 C   0  0
   16.0135   -1.5192    0.0000 C   0  0
   16.0154   -0.6952    0.0000 C   0  0
   16.0173    0.1298    0.0000 C   0  0
   17.4480   -3.9966    0.0000 C   0  0
   17.4492   -4.8216    0.0000 O   0  0
   18.1618   -3.5829    0.0000 N   0  0
   18.8769   -3.9943    0.0000 C   0  0
   18.8735   -4.8178    0.0000 C   0  0
   19.5878   -5.2291    0.0000 C   0  0
   20.3026   -4.8154    0.0000 C   0  0
   20.2986   -3.9861    0.0000 C   0  0
   19.5838   -3.5785    0.0000 C   0  0
   19.5887   -6.0541    0.0000 C   0  0
   18.8747   -6.4673    0.0000 F   0  0
   20.3036   -6.4658    0.0000 F   0  0
   19.5833   -6.8750    0.0000 F   0  0
   21.0183   -5.2258    0.0000 C   0  0
   21.7315   -4.8112    0.0000 N   0  0
   22.4430   -5.2245    0.0000 C   0  0
   23.1541   -4.8135    0.0000 C   0  0
   23.1560   -3.9881    0.0000 N   0  0
   22.4405   -3.5755    0.0000 C   0  0
   21.7231   -3.9882    0.0000 C   0  0
   23.8708   -3.5762    0.0000 C   0  0
   16.6867    0.6185    0.0000 C   0  0
   16.4336    1.4038    0.0000 N   0  0
   15.6085    1.4057    0.0000 C   0  0
   15.3519    0.6216    0.0000 N   0  0
   14.5660    0.3708    0.0000 C   0  0
   15.1251    2.0742    0.0000 C   0  0
   15.4623    2.8271    0.0000 N   0  0
   14.3044    1.9898    0.0000 O   0  0
   24.5850   -3.9894    0.0000 C   0  0
   25.2998   -3.5775    0.0000 O   0  0
   14.9789    3.4956    0.0000 C   0  0
  9 10  1  0
 20 21  1  0
  2  3  1  0
 20 22  1  0
  4 11  1  0
 20 23  1  0
  5  6  2  0
 17 24  1  0
 11 12  2  0
 24 25  1  0
 25 26  1  0
  6  1  1  0
 11 13  1  0
  1  2  2  0
 13 14  1  0
  1  7  1  0
 25 30  1  0
 26 27  1  0
 27 28  1  0
 28 29  1  0
 29 30  1  0
 14 15  2  0
 28 31  1  0
 10 32  2  0
  3  4  2  0
 15 16  1  0
  6  8  1  0
 16 17  2  0
 32 33  1  0
 33 34  2  0
 34 35  1  0
 35 10  1  0
 35 36  1  0
 17 18  1  0
 34 37  1  0
  8  9  3  0
 37 38  1  0
 18 19  2  0
 37 39  2  0
 19 14  1  0
 31 40  1  0
  4  5  1  0
 40 41  1  0
 16 20  1  0
 38 42  1  0
M  END
> <chembl_id>
CHEMBL1784637

$$$$

  SciTegic01161211252D

 27 29  0  0  0  0            999 V2000
   15.2724   -3.3099    0.0000 C   0  0
   14.5489   -3.7112    0.0000 C   0  0
   14.5357   -4.5366    0.0000 C   0  0
   15.2453   -4.9616    0.0000 N   0  0
   15.9696   -4.5552    0.0000 C   0  0
   15.9792   -3.7312    0.0000 C   0  0
   15.2336   -5.7865    0.0000 C   0  0
   13.8147   -4.9376    0.0000 O   0  0
   15.2852   -2.4850    0.0000 O   0  0
   14.5773   -2.0614    0.0000 C   0  0
   14.5901   -1.2365    0.0000 C   0  0
   15.3116   -0.8409    0.0000 C   0  0
   15.3248   -0.0167    0.0000 C   0  0
   14.6163    0.4076    0.0000 C   0  0
   13.8931    0.0019    0.0000 C   0  0
   13.8834   -0.8209    0.0000 C   0  0
   13.8413   -3.2869    0.0000 Br  0  0
   14.6280    1.2326    0.0000 F   0  0
   16.6791   -4.9763    0.0000 C   0  0
   14.5137   -6.1852    0.0000 N   0  0
   14.5016   -7.0093    0.0000 C   0  0
   15.2107   -7.4328    0.0000 C   0  0
   15.9334   -7.0261    0.0000 N   0  0
   15.9419   -6.2032    0.0000 C   0  0
   16.0181   -1.2669    0.0000 F   0  0
   15.2000   -8.2577    0.0000 C   0  0
   14.4803   -8.6610    0.0000 O   0  0
  1  2  2  0
 13 14  2  0
  4  7  1  0
 14 15  1  0
  3  4  1  0
 15 16  2  0
 16 11  1  0
  3  8  2  0
  2 17  1  0
 14 18  1  0
  1  9  1  0
  5 19  1  0
  4  5  1  0
  7 20  2  0
  9 10  1  0
 20 21  1  0
  2  3  1  0
 21 22  2  0
 10 11  1  0
 22 23  1  0
  5  6  2  0
 23 24  2  0
 24  7  1  0
 11 12  2  0
 12 25  1  0
  6  1  1  0
 22 26  1  0
 12 13  1  0
 26 27  1  0
M  END
> <chembl_id>
CHEMBL1081678

$$$$

  SciTegic02271514372D

 25 29  0  0  0  0            999 V2000
   10.6975   -7.2213    0.0000 N   0  0
    9.9830   -7.6338    0.0000 C   0  0
    9.9830   -8.4588    0.0000 N   0  0
   10.6975   -8.8713    0.0000 C   0  0
   11.4120   -8.4588    0.0000 C   0  0
   12.1265   -8.8713    0.0000 C   0  0
   12.8409   -8.4588    0.0000 C   0  0
   12.8409   -7.6338    0.0000 C   0  0
   12.1265   -7.2213    0.0000 C   0  0
   11.4120   -7.6338    0.0000 C   0  0
    9.3699   -9.0108    0.0000 N   0  0
    9.7055   -9.7645    0.0000 C   0  0
   10.5260   -9.6782    0.0000 N   0  0
    9.2930  -10.4790    0.0000 N   0  0
   13.5554   -7.2213    0.0000 N   0  0
    9.2686   -7.2213    0.0000 C   0  0
    9.0970   -3.9393    0.0000 O   0  0
    8.2766   -3.8531    0.0000 C   0  0
    7.9410   -4.6067    0.0000 O   0  0
    8.5541   -5.1588    0.0000 C   0  0
    9.2686   -4.7463    0.0000 C   0  0
    8.5541   -5.9838    0.0000 C   0  0
    9.2686   -6.3963    0.0000 C   0  0
    9.9830   -5.9838    0.0000 C   0  0
    9.9830   -5.1588    0.0000 C   0  0
  1  2  2  0
  2  3  1  0
  3  4  1  0
  4  5  1  0
  5  6  1  0
  6  7  2  0
  7  8  1  0
  8  9  2  0
  9 10  1  0
  1 10  1  0
  5 10  2  0
 11 12  2  0
 12 13  1  0
  3 11  1  0
  4 13  2  0
 12 14  1  0
  8 15  1  0
 17 18  1  0
 18 19  1  0
 19 20  1  0
 20 21  1  0
 17 21  1  0
 22 23  1  0
 23 24  2  0
 24 25  1  0
 21 25  2  0
 20 22  2  0
 16 23  1  0
  2 16  1  0
M  END
> <chembl_id>
CHEMBL3309995

$$$$

  SciTegic04191617032D

 28 31  0  0  0  0            999 V2000
    1.2990   -0.7500    0.0000 C   0  0
    1.2990    0.7500    0.0000 C   0  0
    0.0000    1.5000    0.0000 N   0  0
   -1.2990    0.7500    0.0000 C   0  0
   -1.2990   -0.7500    0.0000 N   0  0
    0.0000   -1.5000    0.0000 C   0  0
    0.0031   -3.0008    0.0000 N   0  0
    1.3039   -3.7494    0.0000 C   0  0
    1.4469   -5.2297    0.0000 C   0  0
    2.9152   -5.5365    0.0000 C   0  0
    3.6607   -4.2349    0.0000 N   0  0
    2.6532   -3.1236    0.0000 N   0  0
    3.4071   -6.6311    0.0000 C   0  0
   -2.6003    1.4977    0.0000 O   0  0
   -3.8990    0.7455    0.0000 C   0  0
   -5.2007    1.4909    0.0000 C   0  0
   -6.4972    0.7364    0.0000 C   0  0
   -6.4920   -0.7636    0.0000 C   0  0
   -5.1903   -1.5091    0.0000 C   0  0
   -3.8939   -0.7546    0.0000 C   0  0
    2.5987    1.5004    0.0000 N   0  0
    3.8991    0.7525    0.0000 C   0  0
    5.1969    1.5046    0.0000 C   0  0
    5.1945    3.0046    0.0000 N   0  0
    3.8943    3.7525    0.0000 C   0  0
    2.5964    3.0004    0.0000 C   0  0
    6.2328    3.6062    0.0000 C   0  0
   -7.5291   -1.3672    0.0000 N   0  0
  1  2  2  0
  2  3  1  0
  3  4  2  0
  4  5  1  0
  5  6  2  0
  6  1  1  0
  6  7  1  0
  7  8  1  0
  8  9  1  0
  9 10  2  0
 10 11  1  0
 11 12  1  0
 12  8  2  0
 10 13  1  0
  4 14  1  0
 14 15  1  0
 15 16  2  0
 16 17  1  0
 17 18  2  0
 18 19  1  0
 19 20  2  0
 20 15  1  0
  2 21  1  0
 21 22  1  0
 21 26  1  0
 22 23  1  0
 23 24  1  0
 24 25  1  0
 25 26  1  0
 24 27  1  0
 18 28  1  0
M  END
> <chembl_id>
CHEMBL3604930

$$$$

  SciTegic12131613492D

 27 31  0  0  0  0            999 V2000
    0.8955    2.0810    0.0000 C   0  0
    1.7138    1.2033    0.0000 C   0  0
    2.8908    1.4370    0.0000 C   0  0
   -1.0028    1.5132    0.0000 N   0  0
   -2.3155    0.7475    0.0000 C   0  0
   -2.3155   -0.7475    0.0000 N   0  0
   -1.0028   -1.5132    0.0000 C   0  0
    0.2917    0.7475    0.0000 C   0  0
    0.2917   -0.7475    0.0000 C   0  0
    1.7138   -1.2033    0.0000 C   0  0
    2.5889    0.0182    0.0000 O   0  0
   -3.6168    1.4950    0.0000 C   0  0
   -4.9669    0.8708    0.0000 C   0  0
   -5.9732    1.9832    0.0000 N   0  0
   -5.2262    3.2840    0.0000 N   0  0
   -3.7582    2.9755    0.0000 C   0  0
   -0.9971   -3.0138    0.0000 N   0  0
   -2.2935   -3.7700    0.0000 C   0  0
   -4.6304   -4.2656    0.0000 N   0  0
   -3.6203   -3.1531    0.0000 N   0  0
   -3.8857   -5.5600    0.0000 C   0  0
   -2.4241   -5.2456    0.0000 C   0  0
   -1.4032   -6.3500    0.0000 C   0  0
   -1.8757   -7.7944    0.0000 C   0  0
   -3.3373   -8.1089    0.0000 C   0  0
   -4.3620   -6.9866    0.0000 C   0  0
   -0.2308   -6.0940    0.0000 F   0  0
  2  1  1  0
  3  2  1  0
  8  4  1  0
  4  5  2  0
  5  6  1  0
  6  7  2  0
  7  9  1  0
  8  9  2  0
  9 10  1  0
 10 11  1  0
 11  2  1  0
  2  8  1  0
  5 12  1  0
 12 13  2  0
 13 14  1  0
 14 15  1  0
 15 16  2  0
 16 12  1  0
  7 17  1  0
 17 18  1  0
 18 22  1  0
 21 19  1  0
 19 20  1  0
 20 18  2  0
 21 22  2  0
 22 23  1  0
 23 24  2  0
 24 25  1  0
 25 26  2  0
 26 21  1  0
 23 27  1  0
M  END
> <chembl_id>
CHEMBL3759935

$$$$

  SciTegic12131615502D

 42 47  0  0  0  0            999 V2000
    3.7345    1.5436    0.0000 C   0  0
    4.8300    2.8133    0.0000 C   0  0
    3.7345    0.0000    0.0000 C   0  0
    6.1246    2.2656    0.0000 C   0  0
    5.2034   -0.5726    0.0000 C   0  0
    6.1246    0.5726    0.0000 C   0  0
    2.5893   -0.5726    0.0000 C   0  0
    3.5602    0.5726    0.0000 C   0  0
    3.5602    2.2656    0.0000 C   0  0
    5.0291    0.0249    0.0000 C   0  0
    2.1833    1.1556    0.0000 C   0  0
   -1.5951   -0.0674    0.0000 C   0  0
   -2.9758    0.5191    0.0000 C   0  0
   -3.1582    2.0079    0.0000 C   0  0
   -1.9600    2.9103    0.0000 C   0  0
   -0.5794    2.3239    0.0000 C   0  0
   -0.3969    0.8350    0.0000 C   0  0
   -4.5383    2.5976    0.0000 N   0  0
   -5.0883    7.0595    0.0000 N   0  0
   -3.6914    6.4784    0.0000 C   0  0
   -3.5071    4.9925    0.0000 N   0  0
   -4.7187    4.0875    0.0000 C   0  0
   -6.0984    4.6711    0.0000 C   0  0
   -7.2928    3.7685    0.0000 C   0  0
   -8.6715    4.3519    0.0000 C   0  0
   -8.8558    5.8377    0.0000 C   0  0
   -7.6614    6.7403    0.0000 C   0  0
   -6.2827    6.1569    0.0000 C   0  0
   -9.8671    3.4447    0.0000 O   0  0
   -9.6803    1.9555    0.0000 C   0  0
  -10.8759    1.0483    0.0000 C   0  0
  -10.2369    6.4253    0.0000 O   0  0
  -10.4196    7.9150    0.0000 C   0  0
    0.9857    0.2510    0.0000 N   0  0
  -10.6890   -0.4408    0.0000 O   0  0
  -11.6450   -1.1662    0.0000 C   0  0
  -11.8006    8.5025    0.0000 C   0  0
  -11.9832    9.9922    0.0000 O   0  0
  -13.0875   10.4619    0.0000 C   0  0
   -1.4127   -1.5571    0.0000 C   0  0
   -1.2668   -2.7482    0.0000 N   0  0
    2.0353    2.3464    0.0000 O   0  0
  1  2  1  0
  1  3  1  0
  2  4  1  0
  3  5  1  0
  4  6  1  0
  5  6  1  0
  7  8  1  0
  3  7  1  0
  2  9  1  0
  6 10  1  0
 10  8  1  0
  8  9  1  0
 11  8  1  0
 12 13  1  0
 13 14  2  0
 14 15  1  0
 15 16  2  0
 16 17  1  0
 12 17  2  0
 19 20  1  0
 20 21  2  0
 21 22  1  0
 22 23  2  0
 23 24  1  0
 24 25  2  0
 25 26  1  0
 26 27  2  0
 27 28  1  0
 19 28  2  0
 23 28  1  0
 30 31  1  0
 29 30  1  0
 25 29  1  0
 32 33  1  0
 26 32  1  0
 18 22  1  0
 14 18  1  0
 17 34  1  0
 34 11  1  0
 31 35  1  0
 35 36  1  0
 33 37  1  0
 37 38  1  0
 38 39  1  0
 40 41  3  0
 12 40  1  0
 11 42  2  0
M  END
> <chembl_id>
CHEMBL3763796

$$$$

  SciTegic09261414462D

 40 44  0  0  0  0            999 V2000
    4.7449   -9.9094    0.0000 C   0  0
    4.7438  -10.7290    0.0000 C   0  0
    5.4518  -11.1379    0.0000 C   0  0
    6.1615  -10.7285    0.0000 C   0  0
    6.1586   -9.9058    0.0000 C   0  0
    5.4500   -9.5006    0.0000 C   0  0
    4.0392   -9.5012    0.0000 N   0  0
    4.0403   -8.6829    0.0000 C   0  0
    3.3333   -8.2745    0.0000 C   0  0
    2.6247   -8.6834    0.0000 N   0  0
    2.6276   -9.5048    0.0000 C   0  0
    3.3351   -9.9094    0.0000 C   0  0
    6.8698  -11.1360    0.0000 N   0  0
    7.5769  -10.7263    0.0000 C   0  0
    8.2819  -11.1342    0.0000 N   0  0
    8.9885  -10.7252    0.0000 C   0  0
    8.9876   -9.9071    0.0000 C   0  0
    8.2743   -9.4998    0.0000 C   0  0
    7.5706   -9.9112    0.0000 N   0  0
    8.2701   -8.6826    0.0000 O   0  0
    8.9758   -8.2704    0.0000 C   0  0
    9.6825   -8.6757    0.0000 C   0  0
   10.3876   -8.2642    0.0000 C   0  0
   10.3839   -7.4461    0.0000 C   0  0
    9.6691   -7.0414    0.0000 C   0  0
    8.9669   -7.4552    0.0000 C   0  0
   11.0972   -8.6695    0.0000 N   0  0
   11.8030   -8.2577    0.0000 C   0  0
   12.5126   -8.6630    0.0000 C   0  0
   11.7992   -7.4405    0.0000 O   0  0
    9.6942   -9.4965    0.0000 Cl  0  0
    5.4516  -11.9551    0.0000 O   0  0
    4.7438  -12.3636    0.0000 C   0  0
    1.9164   -8.2759    0.0000 C   0  0
   13.2184   -8.2511    0.0000 C   0  0
   13.9280   -8.6565    0.0000 N   0  0
   14.0187   -9.4655    0.0000 C   0  0
   14.8188   -9.6318    0.0000 C   0  0
   15.2241   -8.9221    0.0000 C   0  0
   14.6744   -8.3175    0.0000 C   0  0
  1  2  2  0
  2  3  1  0
  3  4  2  0
  4  5  1  0
  5  6  2  0
  6  1  1  0
  7  8  1  0
  8  9  1  0
  9 10  1  0
 10 11  1  0
 11 12  1  0
 12  7  1  0
  1  7  1  0
  4 13  1  0
 13 14  1  0
 14 15  2  0
 15 16  1  0
 16 17  2  0
 17 18  1  0
 18 19  2  0
 19 14  1  0
 18 20  1  0
 20 21  1  0
 21 22  2  0
 22 23  1  0
 23 24  2  0
 24 25  1  0
 25 26  2  0
 26 21  1  0
 23 27  1  0
 27 28  1  0
 28 29  1  0
 28 30  2  0
 17 31  1  0
  3 32  1  0
 32 33  1  0
 10 34  1  0
 29 35  1  0
 35 36  1  0
 36 37  1  0
 37 38  1  0
 38 39  1  0
 39 40  1  0
 40 36  1  0
M  END
> <chembl_id>
CHEMBL3237931

$$$$

  SciTegic04301217312D

 34 37  0  0  0  0            999 V2000
   13.2750  -19.5833    0.0000 O   0  0
   12.8667  -18.8708    0.0000 S   0  0
   12.4538  -19.5807    0.0000 O   0  0
   14.2986  -18.8708    0.0000 C   0  0
   14.2974  -19.6982    0.0000 C   0  0
   15.0122  -20.1110    0.0000 N   0  0
   15.0104  -18.4580    0.0000 N   0  0
   15.7258  -18.8672    0.0000 C   0  0
   15.7266  -19.6940    0.0000 C   0  0
   16.4419  -20.1050    0.0000 C   0  0
   17.1569  -19.6902    0.0000 C   0  0
   17.1521  -18.8602    0.0000 C   0  0
   16.4362  -18.4530    0.0000 C   0  0
   13.5840  -18.4585    0.0000 N   0  0
   12.1551  -18.4588    0.0000 C   0  0
   12.1585  -17.6332    0.0000 C   0  0
   11.4448  -17.2210    0.0000 C   0  0
   10.7294  -17.6337    0.0000 C   0  0
   10.7323  -18.4629    0.0000 C   0  0
   11.4466  -18.8715    0.0000 C   0  0
   10.0143  -17.2223    0.0000 N   0  0
    9.3005  -17.6359    0.0000 C   0  0
    8.5854  -17.2245    0.0000 C   0  0
    9.3018  -18.4609    0.0000 O   0  0
   13.5826  -20.1101    0.0000 N   0  0
   13.5820  -20.9351    0.0000 C   0  0
   12.8671  -21.3455    0.0000 C   0  0
   12.8661  -22.1697    0.0000 C   0  0
   13.5807  -22.5836    0.0000 C   0  0
   14.2979  -22.1672    0.0000 C   0  0
   14.2954  -21.3444    0.0000 C   0  0
   13.5812  -23.4086    0.0000 C   0  0
   12.8669  -23.8215    0.0000 O   0  0
   14.2959  -23.8207    0.0000 O   0  0
  4  5  2  0
 16 17  1  0
  8  9  1  0
 17 18  2  0
  3  2  2  0
 18 19  1  0
  9 10  1  0
 19 20  2  0
 20 15  1  0
  5  6  1  0
 18 21  1  0
 10 11  2  0
 21 22  1  0
  6  9  2  0
 22 23  1  0
 11 12  1  0
 22 24  2  0
  5 25  1  0
 12 13  2  0
 25 26  1  0
 13  8  1  0
 26 27  2  0
  8  7  2  0
 27 28  1  0
  4 14  1  0
 28 29  2  0
 14  2  1  0
 29 30  1  0
  7  4  1  0
 30 31  2  0
 31 26  1  0
  2 15  1  0
 29 32  1  0
  2  1  2  0
 32 33  1  0
 15 16  2  0
 32 34  2  0
M  END
> <chembl_id>
CHEMBL1944923

$$$$

  SciTegic01181116592D

 42 48  0  0  0  0            999 V2000
   10.9732  -23.5934    0.0000 C   0  0  2  0  0  0
   10.4217  -24.2057    0.0000 C   0  0
   10.6735  -24.9875    0.0000 C   0  0
   11.4799  -25.1634    0.0000 C   0  0  2  0  0  0
   12.0342  -24.5510    0.0000 C   0  0
   11.7820  -23.7627    0.0000 C   0  0
   11.7318  -25.9491    0.0000 N   0  0
   11.1789  -26.5579    0.0000 C   0  0
   11.4277  -27.3407    0.0000 C   0  0
   12.2335  -27.5196    0.0000 N   0  0
   12.7900  -26.9093    0.0000 C   0  0
   12.5408  -26.1201    0.0000 C   0  0
   12.4823  -28.3062    0.0000 C   0  0
   10.7172  -22.8091    0.0000 N   0  0
    8.5069  -21.7333    0.0000 N   0  0
    8.5057  -22.5565    0.0000 C   0  0
    9.2247  -22.9694    0.0000 N   0  0
    9.2229  -21.3205    0.0000 C   0  0
    9.9341  -21.7297    0.0000 C   0  0
    9.9349  -22.5565    0.0000 C   0  0
   11.2030  -22.1460    0.0000 N   0  0
   10.7192  -21.4759    0.0000 C   0  0
   11.1299  -20.7610    0.0000 C   0  0
   11.9558  -20.7629    0.0000 C   0  0
   12.3666  -20.0484    0.0000 C   0  0
   11.9525  -19.3338    0.0000 C   0  0
   11.1232  -19.3383    0.0000 C   0  0
   10.7161  -20.0535    0.0000 C   0  0
   12.3624  -18.6179    0.0000 N   0  0
   13.1874  -18.6150    0.0000 C   0  0
   13.6742  -19.2754    0.0000 O   0  0
   13.6695  -17.9406    0.0000 N   0  0
   14.4550  -18.1926    0.0000 C   0  0
   14.4558  -19.0149    0.0000 C   0  0
   15.1670  -19.4235    0.0000 C   0  0
   15.8781  -19.0111    0.0000 C   0  0
   15.8734  -18.1858    0.0000 C   0  0
   15.1615  -17.7808    0.0000 C   0  0
   15.1687  -20.2485    0.0000 Cl  0  0
    9.2225  -20.4955    0.0000 N   0  0
   11.9256  -28.9150    0.0000 C   0  0
   13.2880  -28.4839    0.0000 C   0  0
  4  5  1  0
  7 12  1  0
 20 14  1  0
 14 21  1  0
 21 22  2  0
 22 19  1  0
  8  9  1  0
 22 23  1  0
  9 10  1  0
 23 24  2  0
 10 11  1  0
 24 25  1  0
 11 12  1  0
 25 26  2  0
  5  6  1  0
 26 27  1  0
 10 13  1  0
 27 28  2  0
 28 23  1  0
  1  2  1  0
 26 29  1  0
  1 14  1  1
 29 30  1  0
 30 31  1  0
  4  7  1  6
  7  8  1  0
 31 34  1  0
 33 32  1  0
 32 30  2  0
 15 16  2  0
 33 34  2  0
 16 17  1  0
 34 35  1  0
 17 20  2  0
 35 36  2  0
  1  6  1  0
 36 37  1  0
 19 18  2  0
 37 38  2  0
 38 33  1  0
 18 15  1  0
 35 39  1  0
 19 20  1  0
 18 40  1  0
  2  3  1  0
 13 41  1  0
  3  4  1  0
 13 42  1  0
M  END
> <chembl_id>
CHEMBL1256425

$$$$

  SciTegic01181116592D

 21 23  0  0  0  0            999 V2000
    5.5422   -8.0796    0.0000 N   0  0
    6.3268   -7.8271    0.0000 C   0  0
    6.3273   -7.0012    0.0000 C   0  0
    5.5427   -6.7460    0.0000 C   0  0
    5.0550   -7.4112    0.0000 C   0  0
    7.0373   -6.5850    0.0000 C   0  0
    7.0381   -5.7623    0.0000 O   0  0
    7.7537   -6.9974    0.0000 N   0  0
    7.0430   -8.2288    0.0000 C   0  0
    7.0550   -9.0553    0.0000 C   0  0
    7.7768   -9.4580    0.0000 C   0  0
    8.4832   -9.0366    0.0000 C   0  0
    8.4737   -8.2134    0.0000 C   0  0
    7.7552   -7.8082    0.0000 C   0  0
    2.9913   -8.1224    0.0000 C   0  0
    3.8176   -8.1230    0.0000 N   0  0
    4.2324   -7.4085    0.0000 C   0  0
    3.8210   -6.6934    0.0000 C   0  0
    2.9948   -6.6927    0.0000 C   0  0
    2.5800   -7.4072    0.0000 N   0  0
    2.5765   -8.8369    0.0000 N   0  0
  1  2  1  0
  2  3  2  0
  3  4  1  0
  4  5  2  0
  1  5  1  0
  6  7  2  0
  6  8  1  0
  3  6  1  0
  9 10  1  0
 10 11  2  0
 11 12  1  0
 12 13  2  0
 13 14  1  0
  9 14  2  0
  2  9  1  0
 15 16  1  0
 16 17  2  0
 17 18  1  0
 18 19  2  0
 19 20  1  0
 15 20  2  0
 15 21  1  0
  5 17  1  0
M  END
> <chembl_id>
CHEMBL1270230

$$$$

  SciTegic09261414462D

 32 35  0  0  0  0            999 V2000
    8.1262  -11.1751    0.0000 N   0  0
    8.8359  -10.7656    0.0000 C   0  0
    8.8331   -9.9430    0.0000 N   0  0
    8.1245   -9.5377    0.0000 C   0  0
    7.4182  -10.7661    0.0000 C   0  0
    7.4194   -9.9496    0.0000 C   0  0
    6.6432   -9.6961    0.0000 C   0  0
    6.1622  -10.3560    0.0000 C   0  0
    6.6413  -11.0172    0.0000 S   0  0
    8.1207   -8.7205    0.0000 N   0  0
    8.8265   -8.3087    0.0000 C   0  0
    9.5339   -8.7188    0.0000 C   0  0
   10.2393   -8.3077    0.0000 C   0  0
   10.2359   -7.4896    0.0000 C   0  0
    9.5214   -7.0844    0.0000 C   0  0
    8.8190   -7.4979    0.0000 C   0  0
    5.3450  -10.3548    0.0000 N   0  0
    4.9375   -9.6465    0.0000 C   0  0
    4.1203   -9.6453    0.0000 C   0  0
    5.3471   -8.9394    0.0000 O   0  0
   10.9412   -7.0768    0.0000 F   0  0
   10.9486   -8.7133    0.0000 Cl  0  0
    3.7127   -8.9370    0.0000 C   0  0
    2.8955   -8.9358    0.0000 C   0  0
    2.4880   -8.2275    0.0000 N   0  0
    2.8980   -7.5220    0.0000 C   0  0
    2.4939   -6.8158    0.0000 C   0  0
    1.6763   -6.8104    0.0000 S   0  0
    1.2645   -7.5174    0.0000 C   0  0
    1.6703   -8.2297    0.0000 C   0  0
    0.9658   -6.4013    0.0000 O   0  0
    1.6715   -5.9927    0.0000 O   0  0
  5  1  1  0
  1  2  2  0
  2  3  1  0
  3  4  2  0
  4  6  1  0
  5  6  2  0
  6  7  1  0
  7  8  2  0
  8  9  1  0
  9  5  1  0
  4 10  1  0
 10 11  1  0
 11 12  2  0
 12 13  1  0
 13 14  2  0
 14 15  1  0
 15 16  2  0
 16 11  1  0
  8 17  1  0
 17 18  1  0
 18 19  1  0
 18 20  2  0
 14 21  1  0
 13 22  1  0
 19 23  2  0
 23 24  1  0
 24 25  1  0
 25 26  1  0
 25 30  1  0
 26 27  1  0
 27 28  1  0
 28 29  1  0
 29 30  1  0
 28 31  2  0
 28 32  2  0
M  END
> <chembl_id>
CHEMBL3233793

$$$$

  SciTegic02271217242D

 32 35  0  0  0  0            999 V2000
    9.6372  -16.0110    0.0000 N   0  0
   10.3537  -15.5977    0.0000 C   0  0
   10.3508  -14.7672    0.0000 N   0  0
    9.6354  -14.3580    0.0000 C   0  0
    8.9224  -15.5982    0.0000 C   0  0
    8.9237  -14.7693    0.0000 C   0  0
    8.1357  -14.5119    0.0000 N   0  0
    7.6474  -15.1818    0.0000 C   0  0
    8.1337  -15.8531    0.0000 C   0  0
    9.6336  -13.5330    0.0000 N   0  0
   10.3472  -13.1190    0.0000 C   0  0
   11.0594  -13.5329    0.0000 C   0  0
   11.7725  -13.1195    0.0000 C   0  0
   11.7712  -12.2936    0.0000 C   0  0
   11.0508  -11.8828    0.0000 C   0  0
   10.3406  -12.2986    0.0000 C   0  0
   12.4877  -13.5307    0.0000 Cl  0  0
   12.4842  -11.8786    0.0000 O   0  0
    7.8819  -13.7269    0.0000 C   0  0
   13.2001  -12.2886    0.0000 C   0  0
   13.2001  -13.1136    0.0000 C   0  0
   13.9152  -13.5235    0.0000 C   0  0
   14.6292  -13.1084    0.0000 C   0  0
   14.6236  -12.2792    0.0000 C   0  0
   13.9080  -11.8730    0.0000 C   0  0
   15.3352  -11.8616    0.0000 O   0  0
   16.0525  -12.2691    0.0000 C   0  0
   16.7641  -11.8515    0.0000 F   0  0
   16.0584  -13.0941    0.0000 F   0  0
   16.7625  -12.6792    0.0000 F   0  0
    7.0752  -13.5541    0.0000 C   0  0
    6.8215  -12.7691    0.0000 O   0  0
  3  4  2  0
 15 16  2  0
 16 11  1  0
  6  7  1  0
 13 17  1  0
  7  8  1  0
 14 18  1  0
  8  9  2  0
  7 19  1  0
  9  5  1  0
 18 20  1  0
  4  6  1  0
 20 21  2  0
  4 10  1  0
 21 22  1  0
  5  6  2  0
 22 23  2  0
 10 11  1  0
 23 24  1  0
  1  2  2  0
 24 25  2  0
 25 20  1  0
 11 12  2  0
 24 26  1  0
  5  1  1  0
 26 27  1  0
 12 13  1  0
 27 28  1  0
  2  3  1  0
 27 29  1  0
 13 14  2  0
 27 30  1  0
 19 31  1  0
 14 15  1  0
 31 32  1  0
M  END
> <chembl_id>
CHEMBL1923008

$$$$

  SciTegic12211613092D

 29 32  0  0  0  0            999 V2000
   -5.3425    5.2369    0.0000 N   0  0
   -5.2049    3.7560    0.0000 C   0  0  1  0  0  0
   -6.5563    3.1351    0.0000 C   0  0
   -7.5599    4.2500    0.0000 O   0  0
   -6.8097    5.5489    0.0000 C   0  0
   -3.9067    3.0027    0.0000 C   0  0
   -2.8664    3.6008    0.0000 O   0  0
   -3.9091    1.5019    0.0000 N   0  0
   -2.6111    0.7486    0.0000 C   0  0
   -2.6111   -0.7486    0.0000 C   0  0
   -1.2964   -1.4973    0.0000 C   0  0
   -1.2964    1.4973    0.0000 C   0  0
    0.0000    0.7486    0.0000 C   0  0
    0.0000   -0.7486    0.0000 C   0  0
    1.2964   -1.4973    0.0000 N   0  0
    2.5929   -0.7486    0.0000 C   0  0
    2.5929    0.7486    0.0000 N   0  0
    1.2964    1.4973    0.0000 C   0  0
   -3.9091   -1.5019    0.0000 O   0  0
    1.2995    2.9981    0.0000 N   0  0
    2.6003    3.7467    0.0000 C   0  0
    2.6056    5.2467    0.0000 C   0  0
    3.9072    5.9922    0.0000 C   0  0
    5.2037    5.2377    0.0000 C   0  0
    5.1985    3.7377    0.0000 C   0  0
    3.8969    2.9922    0.0000 C   0  0
   -7.2976    6.6452    0.0000 O   0  0
   -3.9072   -2.7019    0.0000 C   0  0
    6.2356    3.1342    0.0000 Br  0  0
  1  2  1  0
  2  3  1  0
  3  4  1  0
  4  5  1  0
  5  1  1  0
  2  6  1  6
  6  7  2  0
  6  8  1  0
  8  9  1  0
  9 10  2  0
 10 11  1  0
 11 14  2  0
 13 12  2  0
 12  9  1  0
 13 14  1  0
 14 15  1  0
 15 16  2  0
 16 17  1  0
 17 18  2  0
 18 13  1  0
 10 19  1  0
 18 20  1  0
 20 21  1  0
 21 22  2  0
 22 23  1  0
 23 24  2  0
 24 25  1  0
 25 26  2  0
 26 21  1  0
  5 27  2  0
 19 28  1  0
 25 29  1  0
M  END
> <chembl_id>
CHEMBL3818015

$$$$

  SciTegic09261414462D

 40 43  0  0  0  0            999 V2000
   26.8586   -4.1850    0.0000 C   0  0
   26.8574   -5.0045    0.0000 C   0  0
   27.5655   -5.4135    0.0000 C   0  0
   28.2751   -5.0040    0.0000 C   0  0
   28.2723   -4.1814    0.0000 C   0  0
   27.5637   -3.7761    0.0000 C   0  0
   26.1529   -3.7767    0.0000 N   0  0
   26.1540   -2.9584    0.0000 C   0  0
   25.4470   -2.5501    0.0000 C   0  0
   24.7384   -2.9589    0.0000 N   0  0
   24.7413   -3.7803    0.0000 C   0  0
   25.4488   -4.1850    0.0000 C   0  0
   28.9835   -5.4115    0.0000 N   0  0
   29.6906   -5.0018    0.0000 C   0  0
   30.3956   -5.4097    0.0000 N   0  0
   31.1022   -5.0007    0.0000 C   0  0
   31.1013   -4.1826    0.0000 C   0  0
   30.3880   -3.7753    0.0000 C   0  0
   29.6843   -4.1867    0.0000 N   0  0
   30.3838   -2.9582    0.0000 O   0  0
   31.0895   -2.5460    0.0000 C   0  0
   31.7962   -2.9513    0.0000 C   0  0
   32.5013   -2.5397    0.0000 C   0  0
   32.4976   -1.7217    0.0000 C   0  0
   31.7828   -1.3169    0.0000 C   0  0
   31.0806   -1.7307    0.0000 C   0  0
   33.2109   -2.9451    0.0000 N   0  0
   33.9167   -2.5332    0.0000 C   0  0
   34.6263   -2.9385    0.0000 C   0  0
   33.9129   -1.7160    0.0000 O   0  0
   31.8078   -3.7720    0.0000 Cl  0  0
   27.5653   -6.2307    0.0000 O   0  0
   26.8575   -6.6391    0.0000 C   0  0
   24.0301   -2.5514    0.0000 C   0  0
   35.3321   -2.5267    0.0000 C   0  0
   36.0417   -2.9320    0.0000 N   0  0
   36.0455   -3.7492    0.0000 C   0  0
   36.7475   -2.5201    0.0000 C   0  0
   37.4571   -2.9255    0.0000 C   0  0
   36.7550   -4.1545    0.0000 C   0  0
  1  2  2  0
  2  3  1  0
  3  4  2  0
  4  5  1  0
  5  6  2  0
  6  1  1  0
  7  8  1  0
  8  9  1  0
  9 10  1  0
 10 11  1  0
 11 12  1  0
 12  7  1  0
  1  7  1  0
  4 13  1  0
 13 14  1  0
 14 15  2  0
 15 16  1  0
 16 17  2  0
 17 18  1  0
 18 19  2  0
 19 14  1  0
 18 20  1  0
 20 21  1  0
 21 22  2  0
 22 23  1  0
 23 24  2  0
 24 25  1  0
 25 26  2  0
 26 21  1  0
 23 27  1  0
 27 28  1  0
 28 29  1  0
 28 30  2  0
 17 31  1  0
  3 32  1  0
 32 33  1  0
 10 34  1  0
 29 35  1  0
 35 36  1  0
 36 37  1  0
 36 38  1  0
 38 39  1  0
 37 40  1  0
M  END
> <chembl_id>
CHEMBL3237930

$$$$

  SciTegic12171313022D

 33 36  0  0  0  0            999 V2000
   17.8488  -13.4919    0.0000 C   0  0
   17.8477  -14.3114    0.0000 C   0  0
   18.5557  -14.7204    0.0000 N   0  0
   19.2654  -14.3109    0.0000 C   0  0
   19.2626  -13.4883    0.0000 N   0  0
   18.5540  -13.0830    0.0000 C   0  0
   18.5520  -12.2659    0.0000 C   0  0
   19.2117  -11.7836    0.0000 C   0  0
   18.9568  -11.0071    0.0000 N   0  0
   17.8895  -11.7875    0.0000 C   0  0
   18.1425  -11.0104    0.0000 N   0  0
   17.5965  -10.4049    0.0000 C   0  0
   16.7974  -10.5752    0.0000 C   0  0
   16.5473  -11.3565    0.0000 C   0  0
   17.0950  -11.9587    0.0000 C   0  0
   19.9738  -14.7184    0.0000 N   0  0
   20.6808  -14.3087    0.0000 C   0  0
   21.3858  -14.7166    0.0000 C   0  0
   22.0924  -14.3076    0.0000 C   0  0
   20.6746  -13.4936    0.0000 C   0  0
   21.3859  -15.5338    0.0000 O   0  0
   20.6783  -15.9425    0.0000 C   0  0
   21.3744  -13.0814    0.0000 C   0  0
   22.0877  -13.4904    0.0000 C   0  0
   21.3696  -12.2643    0.0000 N   0  0
   22.0749  -11.8515    0.0000 C   0  0
   22.0701  -11.0344    0.0000 C   0  0
   22.7850  -12.2560    0.0000 O   0  0
   22.7754  -10.6216    0.0000 C   0  0
   22.7706   -9.8044    0.0000 C   0  0
   23.4759   -9.3917    0.0000 N   0  0
   23.4712   -8.5782    0.0000 C   0  0
   24.1860   -9.7961    0.0000 C   0  0
  1  2  2  0
  2  3  1  0
  3  4  2  0
  4  5  1  0
  5  6  2  0
  6  1  1  0
  7  8  1  0
  8  9  2  0
  9 11  1  0
 10  7  2  0
  6  7  1  0
 10 11  1  0
 11 12  1  0
 12 13  2  0
 13 14  1  0
 14 15  2  0
 15 10  1  0
  4 16  1  0
 16 17  1  0
 17 18  2  0
 18 19  1  0
 19 24  2  0
 23 20  2  0
 20 17  1  0
 18 21  1  0
 21 22  1  0
 23 24  1  0
 23 25  1  0
 25 26  1  0
 26 27  1  0
 26 28  2  0
 27 29  2  0
 29 30  1  0
 30 31  1  0
 31 32  1  0
 31 33  1  0
M  END
> <chembl_id>
CHEMBL2426289

$$$$

  SciTegic01161211212D

 43 49  0  0  0  0            999 V2000
    6.2518   -8.6899    0.0000 N   0  0
    6.9815   -8.3047    0.0000 C   0  0
    7.0127   -7.4802    0.0000 O   0  0
    7.6799   -8.7440    0.0000 C   0  0
    7.6486   -9.5684    0.0000 C   0  0
    6.9178   -9.9511    0.0000 C   0  0
    6.8847  -10.7719    0.0000 C   0  0
    7.5811  -11.2149    0.0000 C   0  0
    8.3126  -10.8310    0.0000 C   0  0
    8.3475  -10.0041    0.0000 C   0  0
    5.5375   -7.4577    0.0000 C   0  0
    4.8228   -7.0408    0.0000 C   0  0
    4.1065   -7.4511    0.0000 C   0  0
    4.1037   -8.2784    0.0000 C   0  0
    4.8231   -8.6934    0.0000 C   0  0
    5.5365   -8.2807    0.0000 C   0  0
    3.3903   -8.6914    0.0000 C   0  0
    2.6370   -8.3541    0.0000 C   0  0
    3.3027   -9.5118    0.0000 N   0  0
    2.4956   -9.6822    0.0000 C   0  0
    2.0837   -8.9692    0.0000 N   0  0
    1.2784   -9.1406    0.0000 C   0  0
    1.1925   -9.9595    0.0000 C   0  0
    1.9447  -10.2941    0.0000 S   0  0
    2.6285   -7.5302    0.0000 C   0  0
    3.3407   -7.1117    0.0000 C   0  0
    3.3334   -6.2874    0.0000 C   0  0
    1.9124   -7.1272    0.0000 N   0  0
    1.9015   -6.3043    0.0000 C   0  0
    2.6157   -5.8770    0.0000 N   0  0
    1.1812   -5.9022    0.0000 N   0  0
    1.1693   -5.0773    0.0000 C   0  0
    1.8776   -4.6598    0.0000 C   0  0
    1.8660   -3.8357    0.0000 C   0  0
    1.1451   -3.4326    0.0000 C   0  0
    0.4343   -3.8599    0.0000 C   0  0
    0.4493   -4.6826    0.0000 C   0  0
    1.1322   -2.6077    0.0000 N   0  0
    1.8440   -2.1891    0.0000 C   0  0
    1.8331   -1.3677    0.0000 C   0  0
    1.1140   -0.9626    0.0000 O   0  0
    0.4041   -1.3851    0.0000 C   0  0
    0.4135   -2.2128    0.0000 C   0  0
  1  2  1  0
  2  3  2  0
  2  4  1  0
  4  5  1  0
  5  6  1  0
  5 10  2  0
  6  7  2  0
  7  8  1  0
  8  9  2  0
  9 10  1  0
 19 17  1  0
 14 17  1  0
 20 21  1  0
 14 15  1  0
 12 13  1  0
 29 31  1  0
 15 16  2  0
 31 32  1  0
 16 11  1  0
 32 33  2  0
 17 18  2  0
 33 34  1  0
 21 22  1  0
 34 35  2  0
 22 23  2  0
 35 36  1  0
 23 24  1  0
 36 37  2  0
 37 32  1  0
 24 20  1  0
 35 38  1  0
 38 39  1  0
 11 12  2  0
 13 14  2  0
 25 26  2  0
 26 27  1  0
 38 43  1  0
 39 40  1  0
 40 41  1  0
 41 42  1  0
 42 43  1  0
 27 30  2  0
 18 21  1  0
 29 28  2  0
 28 25  1  0
 18 25  1  0
 29 30  1  0
 20 19  2  0
 16  1  1  0
M  END
> <chembl_id>
CHEMBL1090356

$$$$

  SciTegic01181116592D

 31 34  0  0  0  0            999 V2000
   -0.3170   -8.0648    0.0000 N   0  0
    0.3997   -7.6513    0.0000 C   0  0
    0.3968   -6.8204    0.0000 N   0  0
   -0.3188   -6.4110    0.0000 C   0  0
   -0.3214   -5.5856    0.0000 N   0  0
   -1.0323   -7.6518    0.0000 C   0  0
   -1.0356   -6.8271    0.0000 C   0  0
   -1.8155   -7.9097    0.0000 S   0  0
   -2.3031   -7.2445    0.0000 C   0  0
   -1.8212   -6.5771    0.0000 C   0  0
   -2.1564   -5.8302    0.0000 C   0  0
   -2.9746   -5.7444    0.0000 C   0  0
   -3.4564   -6.4114    0.0000 N   0  0
   -3.1202   -7.1651    0.0000 C   0  0
    0.3922   -5.1708    0.0000 C   0  0  1  0  0  0
    1.1082   -5.5814    0.0000 C   0  0
    0.3898   -4.3454    0.0000 C   0  0
    1.1085   -6.4041    0.0000 C   0  0
    1.8238   -6.8146    0.0000 C   0  0
    2.5383   -6.3997    0.0000 C   0  0
    2.5332   -5.5700    0.0000 C   0  0
    1.8173   -5.1633    0.0000 C   0  0
   -4.2853   -6.4113    0.0000 C   0  0
   -4.6981   -7.1261    0.0000 O   0  0
   -4.6980   -5.6965    0.0000 C   0  0
   -4.2852   -4.9817    0.0000 C   0  0
    1.1033   -3.9306    0.0000 O   0  0
   -4.6978   -4.2669    0.0000 C   0  0
   -4.2850   -3.5521    0.0000 N   0  0
   -4.6976   -2.8372    0.0000 C   0  0
   -3.4596   -3.5522    0.0000 C   0  0
  2  3  1  0
  5 15  1  0
 15 16  1  0
  7 10  1  0
 15 17  1  6
  9  8  1  0
 16 18  2  0
  8  6  1  0
 18 19  1  0
  9 10  2  0
 19 20  2  0
  3  4  2  0
 20 21  1  0
  4  7  1  0
 21 22  2  0
 22 16  1  0
  1  2  2  0
 13 23  1  0
  4  5  1  0
 23 24  2  0
  6  7  2  0
 23 25  1  0
  6  1  1  0
 25 26  2  0
  9 14  1  0
 17 27  1  0
 10 11  1  0
 26 28  1  0
 11 12  1  0
 28 29  1  0
 12 13  1  0
 29 30  1  0
 13 14  1  0
 29 31  1  0
M  END
> <chembl_id>
CHEMBL1272276

$$$$

          11280715322D 1   1.00000     0.00000     0

 37 38  0     0  0            999 V2000
    2.2500   -1.2000    0.0000 C   0  0  0  0  0  0           0  0  0
    2.9625   -0.7792    0.0000 C   0  0  0  0  0  0           0  0  0
    3.6792   -1.1917    0.0000 C   0  0  0  0  0  0           0  0  0
   -2.0375   -1.2125    0.0000 C   0  0  0  0  0  0           0  0  0
    6.5292   -1.1750    0.0000 C   0  0  0  0  0  0           0  0  0
    0.8167   -1.2042    0.0000 C   0  0  0  0  0  0           0  0  0
    4.3917   -0.7792    0.0000 C   0  0  0  0  0  0           0  0  0
    1.5292   -0.7917    0.0000 C   0  0  0  0  0  0           0  0  0
    0.1042   -0.7917    0.0000 C   0  0  0  0  0  0           0  0  0
    6.5375   -2.0042    0.0000 C   0  0  0  0  0  0           0  0  0
   -2.0375   -2.0417    0.0000 C   0  0  0  0  0  0           0  0  0
   -4.1833   -2.4542    0.0000 C   0  0  0  0  0  0           0  0  0
    7.9750   -3.6500    0.0000 C   0  0  0  0  0  0           0  0  0
    7.2542   -2.4167    0.0000 O   0  0  0  0  0  0           0  0  0
   -2.7583   -2.4542    0.0000 O   0  0  0  0  0  0           0  0  0
   -1.3250   -0.8000    0.0000 C   0  0  0  0  0  0           0  0  0
    5.8125   -0.7667    0.0000 C   0  0  0  0  0  0           0  0  0
   -4.1833   -3.2792    0.0000 O   0  0  0  0  0  0           0  0  0
    7.9792   -4.4750    0.0000 O   0  0  0  0  0  0           0  0  0
    5.1042   -1.1875    0.0000 C   0  0  0  0  0  0           0  0  0
   -0.6083   -1.2125    0.0000 C   0  0  0  0  0  0           0  0  0
    1.5292    0.0333    0.0000 O   0  0  0  0  0  0           0  0  0
   -1.3250   -2.4542    0.0000 C   0  0  0  0  0  0           0  0  0
    5.8167   -2.4167    0.0000 C   0  0  0  0  0  0           0  0  0
    7.2542   -3.2417    0.0000 C   0  0  0  0  0  0           0  0  0
   -3.4708   -2.0417    0.0000 C   0  0  0  0  0  0           0  0  0
    5.1042   -2.0125    0.0000 C   0  0  0  0  0  0           0  0  0
   -0.6083   -2.0417    0.0000 C   0  0  0  0  0  0           0  0  0
    2.9542    0.0458    0.0000 O   0  0  0  0  0  0           0  0  0
   -2.7500   -0.8042    0.0000 O   0  0  0  0  0  0           0  0  0
    7.2417   -0.7542    0.0000 O   0  0  0  0  0  0           0  0  0
   -4.8958   -2.0417    0.0000 O   0  0  0  0  0  0           0  0  0
    8.6792   -3.2292    0.0000 O   0  0  0  0  0  0           0  0  0
   -2.7500    0.0208    0.0000 C   0  0  0  0  0  0           0  0  0
    7.2292    0.0708    0.0000 C   0  0  0  0  0  0           0  0  0
   -4.8958   -1.2167    0.0000 C   0  0  0  0  0  0           0  0  0
    9.4000   -3.6417    0.0000 C   0  0  0  0  0  0           0  0  0
  2  1  2  0     0  0
  3  2  1  0     0  0
  4 16  1  0     0  0
  5 17  2  0     0  0
  6  8  1  0     0  0
  7  3  2  0     0  0
  8  1  1  0     0  0
  9  6  2  0     0  0
 10 24  2  0     0  0
 11 23  1  0     0  0
 12 26  1  0     0  0
 13 25  1  0     0  0
 14 10  1  0     0  0
 15 11  1  0     0  0
 16 21  2  0     0  0
 17 20  1  0     0  0
 18 12  2  0     0  0
 19 13  2  0     0  0
 20  7  1  0     0  0
 21  9  1  0     0  0
 22  8  2  0     0  0
 23 28  2  0     0  0
 24 27  1  0     0  0
 25 14  1  0     0  0
 26 15  1  0     0  0
 27 20  2  0     0  0
 28 21  1  0     0  0
 29  2  1  0     0  0
 30  4  1  0     0  0
 31  5  1  0     0  0
 32 12  1  0     0  0
 33 13  1  0     0  0
 34 30  1  0     0  0
 35 31  1  0     0  0
 36 32  1  0     0  0
 37 33  1  0     0  0
 11  4  2  0     0  0
  5 10  1  0     0  0
M  END
> <chembl_id>
CHEMBL146120

$$$$

  SciTegic12091611192D

 32 35  0  0  0  0            999 V2000
   -3.6217    1.4865    0.0000 N   0  0
   -7.5133    0.6990    0.0000 C   0  0
   -6.2219    1.4621    0.0000 N   0  0
   -4.9153    0.7255    0.0000 C   0  0
   -4.9001   -0.7745    0.0000 C   0  0
   -6.1914   -1.5377    0.0000 C   0  0
   -7.4980   -0.8010    0.0000 N   0  0
   -8.8205    1.4361    0.0000 N   0  0
   -8.8383    2.9360    0.0000 C   0  0
  -10.1461    3.6707    0.0000 C   0  0
  -11.4362    2.9055    0.0000 C   0  0
  -11.4185    1.4056    0.0000 C   0  0
  -10.1108    0.6709    0.0000 C   0  0
   -1.0028   -1.5132    0.0000 C   0  0
    0.2917   -0.7475    0.0000 C   0  0
    0.2917    0.7475    0.0000 C   0  0
   -1.0028    1.5132    0.0000 C   0  0
   -2.3155    0.7475    0.0000 C   0  0
   -2.3155   -0.7475    0.0000 N   0  0
    2.5889    0.0182    0.0000 C   0  0
    1.7138   -1.2033    0.0000 N   0  0
    1.7138    1.2033    0.0000 N   0  0
    3.7889    0.0269    0.0000 C   0  0
    2.1812    2.6271    0.0000 C   0  0
    3.3556    2.8737    0.0000 C   0  0
    1.3808    3.5211    0.0000 C   0  0
  -11.4173    4.3861    0.0000 O   0  0
  -12.6905    2.1191    0.0000 C   0  0
  -12.4631    4.9746    0.0000 C   0  0
  -12.6735    0.6184    0.0000 N   0  0
  -13.7054    0.0060    0.0000 C   0  0
  -11.6273    0.0305    0.0000 C   0  0
  2  3  1  0
  3  4  2  0
  4  5  1  0
  5  6  2  0
  6  7  1  0
  2  7  2  0
  8  9  1  0
  9 10  1  0
 10 11  1  0
 11 12  1  0
 12 13  1  0
  8 13  1  0
  2  8  1  0
  1  4  1  0
 14 15  1  0
 15 16  2  0
 16 17  1  0
 17 18  2  0
 18 19  1  0
 14 19  2  0
 20 21  2  0
 20 22  1  0
 15 21  1  0
 16 22  1  0
  1 18  1  0
 20 23  1  0
 22 24  1  0
 24 25  1  0
 24 26  1  0
 11 27  1  0
 11 28  1  0
 27 29  1  0
 28 30  1  0
 30 31  1  0
 30 32  1  0
M  END
> <chembl_id>
CHEMBL3735927

$$$$

  SciTegic12191611242D

 30 33  0  0  0  0            999 V2000
   -8.4598    0.3211    0.0000 C   0  0
   -7.2652    0.2078    0.0000 N   0  0
   -6.5020   -1.0835    0.0000 N   0  0
   -5.0380   -0.7567    0.0000 C   0  0
   -6.2729    1.3327    0.0000 C   0  0
   -4.9153    0.7255    0.0000 C   0  0
   -3.6217    1.4865    0.0000 N   0  0
   -2.3155    0.7475    0.0000 C   0  0
   -1.0028    1.5132    0.0000 N   0  0
    0.2917    0.7475    0.0000 C   0  0
    0.2917   -0.7475    0.0000 C   0  0
    1.7138   -1.2033    0.0000 C   0  0
    2.0907   -2.3426    0.0000 Cl  0  0
    2.5889    0.0182    0.0000 C   0  0
    1.7138    1.2033    0.0000 N   0  0
   -1.0028   -1.5132    0.0000 C   0  0
   -0.9971   -3.0138    0.0000 O   0  0
   -2.2935   -3.7700    0.0000 C   0  0
   -2.2878   -5.2708    0.0000 C   0  0  2  0  0  0
   -1.0692   -6.1235    0.0000 C   0  0
   -1.5244   -7.5527    0.0000 N   0  0
   -0.6391   -8.7615    0.0000 C   0  0
   -1.2435  -10.1353    0.0000 C   0  0
   -0.5345  -11.1034    0.0000 C   0  0
    0.5538   -8.6312    0.0000 O   0  0
   -3.0244   -7.5615    0.0000 C   0  0
   -3.4962   -6.1377    0.0000 C   0  0  1  0  0  0
   -4.9212   -5.6751    0.0000 O   0  0
   -5.8133   -6.4777    0.0000 C   0  0
   -2.3155   -0.7475    0.0000 N   0  0
  1  2  1  0
  2  3  1  0
  3  4  2  0
  2  5  1  0
  5  6  2  0
  4  6  1  0
  6  7  1  0
  7  8  1  0
  8  9  2  0
  9 10  1  0
 10 11  2  0
 11 12  1  0
 12 13  1  0
 12 14  2  0
 14 15  1  0
 10 15  1  0
 11 16  1  0
 16 17  1  0
 17 18  1  0
 19 18  1  6
 19 20  1  0
 20 21  1  0
 21 22  1  0
 22 23  1  0
 23 24  2  0
 22 25  2  0
 21 26  1  0
 26 27  1  0
 19 27  1  0
 27 28  1  1
 28 29  1  0
 16 30  2  0
  8 30  1  0
M  END
> <chembl_id>
CHEMBL3787132

$$$$

  SciTegic12171313052D

 32 35  0  0  0  0            999 V2000
    9.2766   -4.2964    0.0000 C   0  0
    9.2754   -5.1159    0.0000 C   0  0
    9.9835   -5.5249    0.0000 C   0  0
   10.6932   -5.1155    0.0000 C   0  0
   10.6903   -4.2928    0.0000 C   0  0
    9.9817   -3.8875    0.0000 C   0  0
    9.9793   -3.0704    0.0000 N   0  0
   10.6857   -2.6597    0.0000 C   0  0
   11.3961   -3.0706    0.0000 N   0  0
   11.3862   -1.4362    0.0000 C   0  0
   10.6832   -1.8485    0.0000 N   0  0
   12.1001   -1.8425    0.0000 C   0  0
   12.1009   -2.6622    0.0000 C   0  0
   12.8073   -3.0691    0.0000 N   0  0
   13.5174   -2.6609    0.0000 C   0  0
   13.5167   -1.8411    0.0000 C   0  0
   12.8057   -1.4297    0.0000 N   0  0
   12.8085   -3.8836    0.0000 C   0  0
   12.0990   -4.2913    0.0000 C   0  0
   12.0983   -5.1078    0.0000 C   0  0
   12.8063   -5.5175    0.0000 C   0  0
   13.5166   -5.1048    0.0000 C   0  0
   13.5138   -4.2897    0.0000 C   0  0
   14.2250   -3.0698    0.0000 O   0  0
   12.8071   -6.3347    0.0000 N   0  0
   13.5151   -6.7426    0.0000 C   0  0
   13.5159   -7.5598    0.0000 O   0  0
   14.2225   -6.3334    0.0000 C   0  0
   14.9306   -6.7413    0.0000 C   0  0
    9.9833   -6.3421    0.0000 O   0  0
    9.2755   -6.7505    0.0000 C   0  0
   14.2244   -1.4326    0.0000 C   0  0
  1  2  2  0
  2  3  1  0
  3  4  2  0
  4  5  1  0
  5  6  2  0
  6  1  1  0
  6  7  1  0
  7  8  1  0
  8  9  2  0
  9 13  1  0
 12 10  1  0
 10 11  2  0
 11  8  1  0
 12 13  2  0
 12 17  1  0
 13 14  1  0
 14 15  1  0
 15 16  1  0
 16 17  2  0
 18 19  2  0
 19 20  1  0
 20 21  2  0
 21 22  1  0
 22 23  2  0
 23 18  1  0
 14 18  1  0
 15 24  2  0
 21 25  1  0
 25 26  1  0
 26 27  2  0
 26 28  1  0
 28 29  2  0
  3 30  1  0
 30 31  1  0
 16 32  1  0
M  END
> <chembl_id>
CHEMBL2437470

$$$$

  SciTegic05221516342D

 41 45  0  0  0  0            999 V2000
    2.3222  -10.7142    0.0000 C   0  0
    2.3211  -11.5338    0.0000 C   0  0
    3.0291  -11.9427    0.0000 N   0  0
    3.7388  -11.5333    0.0000 C   0  0
    3.7359  -10.7106    0.0000 N   0  0
    3.0273  -10.3054    0.0000 C   0  0
    3.0254   -9.4883    0.0000 C   0  0
    3.6851   -9.0059    0.0000 C   0  0
    3.4302   -8.2295    0.0000 N   0  0
    2.3629   -9.0099    0.0000 C   0  0
    2.6097   -8.2288    0.0000 N   0  0
    2.0597   -7.6278    0.0000 C   0  0
    1.2599   -7.8022    0.0000 C   0  0
    1.0131   -8.5834    0.0000 C   0  0
    1.5660   -9.1901    0.0000 C   0  0
    1.6144  -10.3058    0.0000 Cl  0  0
    4.4471  -11.9408    0.0000 N   0  0
    5.1542  -11.5311    0.0000 C   0  0
    5.8592  -11.9390    0.0000 C   0  0
    6.5658  -11.5300    0.0000 C   0  0
    6.5650  -10.7119    0.0000 C   0  0
    5.8516  -10.3046    0.0000 C   0  0
    5.1480  -10.7160    0.0000 C   0  0
    5.8593  -12.7562    0.0000 O   0  0
    5.1516  -13.1649    0.0000 C   0  0
    5.8475   -9.4874    0.0000 N   0  0
    5.1377   -9.0824    0.0000 C   0  0
    5.1335   -8.2653    0.0000 C   0  0
    4.4321   -9.4946    0.0000 O   0  0
    5.8391   -7.8531    0.0000 C   0  0
    7.2715  -10.3013    0.0000 N   0  0
    7.9786  -10.7134    0.0000 C   0  0
    8.6830  -10.3062    0.0000 C   0  0
    8.6849   -9.4887    0.0000 N   0  0
    7.9761   -9.0800    0.0000 C   0  0
    7.2656   -9.4888    0.0000 C   0  0
    9.3929   -9.0807    0.0000 C   0  0
    9.3937   -8.2635    0.0000 O   0  0
   10.1003   -9.4899    0.0000 C   0  0  2  0  0  0
   10.0996  -10.3071    0.0000 C   0  0
   10.8084   -9.0820    0.0000 N   0  0
  1  2  2  0
  2  3  1  0
  3  4  2  0
  4  5  1  0
  5  6  2  0
  6  1  1  0
  7  8  1  0
  8  9  2  0
  9 11  1  0
 10  7  2  0
  6  7  1  0
 10 11  1  0
 10 15  1  0
 11 12  1  0
 12 13  2  0
 13 14  1  0
 14 15  2  0
  1 16  1  0
  4 17  1  0
 17 18  1  0
 18 19  2  0
 19 20  1  0
 20 21  2  0
 21 22  1  0
 22 23  2  0
 23 18  1  0
 19 24  1  0
 24 25  1  0
 22 26  1  0
 26 27  1  0
 27 28  1  0
 27 29  2  0
 28 30  2  0
 21 31  1  0
 31 32  1  0
 31 36  1  0
 32 33  1  0
 33 34  1  0
 34 35  1  0
 35 36  1  0
 34 37  1  0
 37 38  2  0
 37 39  1  0
 39 40  1  1
 39 41  1  0
M  END
> <chembl_id>
CHEMBL3353396

$$$$

  SciTegic05221516342D

 34 37  0  0  0  0            999 V2000
   31.8041  -22.1001    0.0000 C   0  0
   32.5132  -21.6915    0.0000 C   0  0
   32.5132  -20.8743    0.0000 C   0  0
   33.2182  -20.4657    0.0000 C   0  0
   31.8041  -22.9173    0.0000 O   0  0
   31.0950  -21.6915    0.0000 N   0  0
   33.9273  -20.8743    0.0000 N   0  0
   34.6322  -20.4657    0.0000 C   0  0
   35.3413  -20.8743    0.0000 C   0  0
   35.3413  -21.6915    0.0000 O   0  0
   34.6322  -22.1001    0.0000 C   0  0
   33.9273  -21.6915    0.0000 C   0  0
   33.2182  -22.1001    0.0000 F   0  0
   28.2669  -23.3259    0.0000 N   0  0
   27.5578  -22.9173    0.0000 C   0  0
   27.5578  -22.1001    0.0000 N   0  0
   28.2669  -21.6915    0.0000 C   0  0
   28.9719  -22.1001    0.0000 C   0  0
   29.6810  -21.6915    0.0000 C   0  0
   30.3901  -22.1001    0.0000 C   0  0
   30.3901  -22.9173    0.0000 C   0  0
   29.6810  -23.3259    0.0000 C   0  0
   28.9719  -22.9173    0.0000 C   0  0
   31.0950  -23.3259    0.0000 O   0  0
   31.0950  -24.1431    0.0000 C   0  0
   28.2669  -20.8743    0.0000 N   0  0
   27.5578  -20.4657    0.0000 C   0  0
   26.8488  -20.8743    0.0000 C   0  0
   26.1438  -20.4657    0.0000 C   0  0
   26.1438  -19.6485    0.0000 C   0  0
   26.8488  -19.2399    0.0000 C   0  0
   27.5578  -19.6485    0.0000 C   0  0
   25.4347  -19.2399    0.0000 F   0  0
   25.4347  -20.8743    0.0000 Cl  0  0
  1  2  1  0
  2  3  2  0
  3  4  1  0
  1  5  2  0
  1  6  1  0
  7  8  1  0
  8  9  1  0
  9 10  1  0
 10 11  1  0
 11 12  1  0
  7 12  1  0
  4  7  1  0
  2 13  1  0
 14 15  1  0
 15 16  2  0
 16 17  1  0
 17 18  2  0
 18 19  1  0
 19 20  2  0
 20 21  1  0
 21 22  2  0
 22 23  1  0
 14 23  2  0
 18 23  1  0
 24 25  1  0
 21 24  1  0
 27 28  1  0
 28 29  2  0
 29 30  1  0
 30 31  2  0
 31 32  1  0
 27 32  2  0
 30 33  1  0
 29 34  1  0
 26 27  1  0
 17 26  1  0
  6 20  1  0
M  END
> <chembl_id>
CHEMBL3357643

$$$$

  SciTegic09261414532D

 29 33  0  0  0  0            999 V2000
    5.3647   -0.3459    0.0000 C   0  0
    5.5362    0.4611    0.0000 C   0  0
    6.3209    0.7160    0.0000 C   0  0
    6.9340    0.1640    0.0000 C   0  0
    6.7624   -0.6430    0.0000 C   0  0
    7.3755   -1.1950    0.0000 C   0  0
    7.2040   -2.0020    0.0000 C   0  0
    6.4194   -2.2569    0.0000 C   0  0
    5.8063   -1.7049    0.0000 C   0  0
    5.9778   -0.8979    0.0000 C   0  0
    4.5801   -0.6008    0.0000 C   0  0
    3.9670   -0.0488    0.0000 O   0  0
    4.4086   -1.4078    0.0000 N   0  0
    3.6117   -1.6213    0.0000 C   0  0
    3.3981   -2.4182    0.0000 C   0  0
    2.6013   -2.6317    0.0000 C   0  0
    2.0179   -2.0484    0.0000 C   0  0
    2.2314   -1.2515    0.0000 C   0  0
    3.0283   -1.0379    0.0000 C   0  0
   10.2741   -2.3825    0.0000 C   0  0
    9.8616   -3.0969    0.0000 N   0  0
    9.0366   -3.0969    0.0000 C   0  0
    8.6241   -2.3825    0.0000 C   0  0
    9.0366   -1.6680    0.0000 C   0  0
    9.8616   -1.6680    0.0000 N   0  0
    7.8171   -2.5540    0.0000 C   0  0
    7.7309   -3.3745    0.0000 C   0  0
    8.4845   -3.7100    0.0000 S   0  0
    8.6241   -0.9535    0.0000 N   0  0
  1  2  1  0
  2  3  2  0
  3  4  1  0
  4  5  2  0
  5  6  1  0
  6  7  2  0
  7  8  1  0
  8  9  2  0
  9 10  1  0
  1 10  2  0
  5 10  1  0
  1 11  1  0
 11 12  2  0
 11 13  1  0
 14 15  1  0
 15 16  2  0
 16 17  1  0
 17 18  2  0
 18 19  1  0
 14 19  2  0
 13 14  1  0
 20 21  1  0
 21 22  2  0
 22 23  1  0
 23 24  2  0
 24 25  1  0
 20 25  2  0
 26 27  2  0
 27 28  1  0
 22 28  1  0
 23 26  1  0
 24 29  1  0
  7 26  1  0
M  END
> <chembl_id>
CHEMBL3288526

$$$$

  SciTegic02271217242D

 29 32  0  0  0  0            999 V2000
   10.0081   -9.8569    0.0000 N   0  0
   10.7245   -9.4435    0.0000 C   0  0
   10.7216   -8.6130    0.0000 N   0  0
   10.0063   -8.2039    0.0000 C   0  0
    9.2932   -9.4440    0.0000 C   0  0
    9.2945   -8.6151    0.0000 C   0  0
    8.5065   -8.3577    0.0000 N   0  0
    8.0182   -9.0276    0.0000 C   0  0
    8.5045   -9.6989    0.0000 C   0  0
   10.0044   -7.3789    0.0000 N   0  0
   10.7180   -6.9648    0.0000 C   0  0
   11.4303   -7.3787    0.0000 C   0  0
   12.1434   -6.9653    0.0000 C   0  0
   12.1420   -6.1394    0.0000 C   0  0
   11.4216   -5.7287    0.0000 C   0  0
   10.7115   -6.1444    0.0000 C   0  0
   12.8585   -7.3766    0.0000 Cl  0  0
   12.8550   -5.7244    0.0000 O   0  0
   13.5709   -6.1344    0.0000 C   0  0
   13.5710   -6.9594    0.0000 C   0  0
   14.2860   -7.3693    0.0000 C   0  0
   15.0000   -6.9542    0.0000 C   0  0
   14.9945   -6.1250    0.0000 C   0  0
   14.2788   -5.7188    0.0000 C   0  0
   15.7060   -5.7075    0.0000 O   0  0
   15.7002   -4.8825    0.0000 C   0  0
   16.4117   -4.4650    0.0000 F   0  0
   14.9828   -4.4750    0.0000 F   0  0
   15.6958   -4.0542    0.0000 F   0  0
 13 14  2  0
 14 15  1  0
  3  4  2  0
 15 16  2  0
 16 11  1  0
  6  7  1  0
 13 17  1  0
  7  8  1  0
 14 18  1  0
  8  9  2  0
 18 19  1  0
  9  5  1  0
 19 20  2  0
  4  6  1  0
 20 21  1  0
  4 10  1  0
 21 22  2  0
  5  6  2  0
 22 23  1  0
 10 11  1  0
 23 24  2  0
 24 19  1  0
  1  2  2  0
 23 25  1  0
 11 12  2  0
 25 26  1  0
  5  1  1  0
 26 27  1  0
 12 13  1  0
 26 28  1  0
  2  3  1  0
 26 29  1  0
M  END
> <chembl_id>
CHEMBL1922998

$$$$

  SciTegic01161211212D

 32 36  0  0  0  0            999 V2000
    3.4316    0.4557    0.0000 C   0  0
    4.1426    0.8651    0.0000 C   0  0
    4.1400    1.6839    0.0000 C   0  0
    3.4258    2.0919    0.0000 C   0  0
    2.7169    1.6754    0.0000 C   0  0
    2.7228    0.8579    0.0000 C   0  0
   -2.2686    0.4441    0.0000 C   0  0
   -2.2706   -0.3812    0.0000 N   0  0
   -1.5573   -0.7966    0.0000 C   0  0
   -0.8364   -0.3786    0.0000 C   0  0
   -0.8362    0.4492    0.0000 C   0  0
   -1.5601    0.8590    0.0000 C   0  0
   -0.1196   -0.7934    0.0000 C   0  0
   -0.1198   -1.6259    0.0000 C   0  0
    0.5968   -2.0348    0.0000 N   0  0
    0.5908   -0.3788    0.0000 C   0  0
    1.3082   -0.7862    0.0000 C   0  0
    1.3099   -1.6176    0.0000 C   0  0
    2.0273   -2.0325    0.0000 N   0  0
    2.7415   -1.6148    0.0000 C   0  0
    2.7398   -0.7875    0.0000 C   0  0
    2.0191   -0.3740    0.0000 N   0  0
   -2.9823    0.8558    0.0000 N   0  0
   -2.9855    1.6833    0.0000 C   0  0
   -3.6995    2.0950    0.0000 C   0  0
   -4.4143    1.6846    0.0000 N   0  0
   -4.4150    0.8583    0.0000 C   0  0
   -3.7010    0.4424    0.0000 C   0  0
   -5.1310    2.0989    0.0000 C   0  0
    2.0161    0.4455    0.0000 C   0  0
    3.4352   -0.3626    0.0000 F   0  0
    3.4218    2.9123    0.0000 F   0  0
 10 11  2  0
 11 12  1  0
 12  7  2  0
 10 13  1  0
 13 14  1  0
 14 15  2  0
 15 18  1  0
 17 16  1  0
 16 13  2  0
 17 18  2  0
 17 22  1  0
 18 19  1  0
 19 20  1  0
 20 21  1  0
 21 22  1  0
  7 23  1  0
 23 24  1  0
  4  5  1  0
  2  3  1  0
  5  6  2  0
  6  1  1  0
  1  2  2  0
 23 28  1  0
 24 25  1  0
 25 26  1  0
 26 27  1  0
 27 28  1  0
  3  4  2  0
 26 29  1  0
  7  8  1  0
 22 30  1  0
 30  6  1  0
  8  9  2  0
  1 31  1  0
  9 10  1  0
  4 32  1  0
M  END
> <chembl_id>
CHEMBL1165499

$$$$

  SciTegic04191617032D

 25 27  0  0  0  0            999 V2000
    1.2990   -0.7500    0.0000 C   0  0
    1.2990    0.7500    0.0000 C   0  0
    0.0000    1.5000    0.0000 N   0  0
   -1.2990    0.7500    0.0000 C   0  0
   -1.2990   -0.7500    0.0000 N   0  0
    0.0000   -1.5000    0.0000 C   0  0
    0.0031   -3.0008    0.0000 N   0  0
    1.3039   -3.7494    0.0000 C   0  0
    1.4469   -5.2297    0.0000 C   0  0
    2.9152   -5.5365    0.0000 C   0  0
    3.6607   -4.2349    0.0000 N   0  0
    2.6532   -3.1236    0.0000 N   0  0
    3.4071   -6.6311    0.0000 C   0  0
   -2.6003    1.4977    0.0000 O   0  0
   -3.8990    0.7455    0.0000 C   0  0
   -5.2007    1.4909    0.0000 C   0  0
   -6.4972    0.7364    0.0000 C   0  0
   -6.4920   -0.7636    0.0000 C   0  0
   -5.1903   -1.5091    0.0000 C   0  0
   -3.8939   -0.7546    0.0000 C   0  0
   -5.1821   -3.0099    0.0000 N   0  0
   -3.8787   -3.7540    0.0000 C   0  0
   -3.8704   -5.2548    0.0000 C   0  0
   -2.8426   -3.1486    0.0000 O   0  0
   -2.8282   -5.8497    0.0000 C   0  0
  1  2  2  0
  2  3  1  0
  3  4  2  0
  4  5  1  0
  5  6  2  0
  6  1  1  0
  6  7  1  0
  7  8  1  0
  8  9  1  0
  9 10  2  0
 10 11  1  0
 11 12  1  0
 12  8  2  0
 10 13  1  0
  4 14  1  0
 14 15  1  0
 15 16  2  0
 16 17  1  0
 17 18  2  0
 18 19  1  0
 19 20  2  0
 20 15  1  0
 19 21  1  0
 21 22  1  0
 22 23  1  0
 22 24  2  0
 23 25  2  0
M  END
> <chembl_id>
CHEMBL3604931

$$$$

  SciTegic09081514182D

 44 45  0  0  0  0            999 V2000
    1.2990   -0.7500    0.0000 C   0  0
    1.2990    0.7500    0.0000 C   0  0
    0.0000    1.5000    0.0000 C   0  0
   -1.2990    0.7500    0.0000 C   0  0
   -1.2990   -0.7500    0.0000 C   0  0
    0.0000   -1.5000    0.0000 C   0  0
   -2.5972   -1.5031    0.0000 C   0  0
   -2.5951   -3.0039    0.0000 C   0  0
   -3.8933   -3.7570    0.0000 C   0  0
   -3.8912   -5.2578    0.0000 C   0  0
   -4.9336   -3.1588    0.0000 O   0  0
   -5.1894   -6.0109    0.0000 C   0  0
   -5.1872   -7.5117    0.0000 C   0  0
   -6.2296   -5.4127    0.0000 O   0  0
   -6.4854   -8.2648    0.0000 C   0  0
   -6.4833   -9.7657    0.0000 C   0  0
   -7.7797  -10.5203    0.0000 C   0  0
   -7.7745  -12.0202    0.0000 C   0  0
   -6.4729  -12.7657    0.0000 C   0  0
   -5.1764  -12.0112    0.0000 C   0  0
   -5.1816  -10.5113    0.0000 C   0  0
    2.5973   -1.5031    0.0000 O   0  0
    2.5972    1.5031    0.0000 O   0  0
   -6.4708  -14.2666    0.0000 O   0  0
   -3.8726  -12.7545    0.0000 O   0  0
   -2.8363  -12.1494    0.0000 C   0  0
    2.5956   -2.7031    0.0000 C   0  0
    2.5951    3.0039    0.0000 C   0  0
    3.8933    3.7570    0.0000 C   0  0
    3.8912    5.2578    0.0000 O   0  0
    4.9336    3.1588    0.0000 O   0  0
    4.9291    5.8600    0.0000 C   0  0
   -7.7690  -15.0196    0.0000 C   0  0
   -7.7669  -16.5205    0.0000 C   0  0
   -9.0651  -17.2735    0.0000 O   0  0
   -6.7266  -17.1187    0.0000 O   0  0
   -9.0634  -18.4735    0.0000 C   0  0
   -2.5916   -6.0087    0.0000 C   0  0
   -2.5912   -7.5095    0.0000 C   0  0
   -1.2916   -8.2603    0.0000 C   0  0
   -0.2524   -7.6603    0.0000 O   0  0
   -1.2912   -9.7611    0.0000 O   0  0
    0.0084  -10.5119    0.0000 C   0  0
    0.0087  -11.7119    0.0000 C   0  0
  1  2  2  0
  2  3  1  0
  3  4  2  0
  4  5  1  0
  5  6  2  0
  6  1  1  0
  5  7  1  0
  7  8  2  0
  8  9  1  0
  9 10  2  0
  9 11  1  0
 10 12  1  0
 12 13  1  0
 12 14  2  0
 13 15  2  0
 15 16  1  0
 16 17  2  0
 17 18  1  0
 18 19  2  0
 19 20  1  0
 20 21  2  0
 21 16  1  0
  1 22  1  0
  2 23  1  0
 19 24  1  0
 20 25  1  0
 25 26  1  0
 22 27  1  0
 23 28  1  0
 28 29  1  0
 29 30  1  0
 29 31  2  0
 30 32  1  0
 24 33  1  0
 33 34  1  0
 34 35  1  0
 34 36  2  0
 35 37  1  0
 10 38  1  0
 38 39  1  0
 39 40  1  0
 40 41  2  0
 40 42  1  0
 42 43  1  0
 43 44  1  0
M  END
> <chembl_id>
CHEMBL3402853

$$$$

  SciTegic04301217312D

 19 20  0  0  0  0            999 V2000
    2.3319   -6.3939    0.0000 C   0  0
    3.1587   -6.4260    0.0000 C   0  0
    3.5980   -5.7271    0.0000 C   0  0
    3.2117   -4.9957    0.0000 C   0  0
    2.3816   -4.9675    0.0000 C   0  0
    1.9461   -5.6671    0.0000 C   0  0
    4.4250   -5.7543    0.0000 N   0  0
    4.8845   -6.4395    0.0000 N   0  0
    5.6781   -6.2142    0.0000 C   0  0
    5.7092   -5.3898    0.0000 C   0  0
    4.9347   -5.1056    0.0000 C   0  0
    4.7094   -4.3120    0.0000 O   0  0
    4.6002   -7.2140    0.0000 C   0  0
    6.4205   -4.9722    0.0000 N   0  0
    7.1379   -5.3795    0.0000 C   0  0
    7.8494   -4.9619    0.0000 C   0  0
    7.1439   -6.2045    0.0000 O   0  0
    8.5668   -5.3692    0.0000 N   0  0
    9.2783   -4.9516    0.0000 O   0  0
 10 11  1  0
 11  7  1  0
  3  7  1  0
  5  6  2  0
 11 12  2  0
  6  1  1  0
  8 13  1  0
  7  8  1  0
 10 14  1  0
  1  2  2  0
 14 15  1  0
  3  4  2  0
 15 16  1  0
 15 17  2  0
  4  5  1  0
  2  3  1  0
  8  9  1  0
 16 18  2  0
  9 10  2  0
 18 19  1  0
M  END
> <chembl_id>
CHEMBL1944920

$$$$

  SciTegic12201615542D

 38 43  0  0  0  0            999 V2000
    1.5297   -7.7799    0.0000 C   0  0
    2.7202   -7.9307    0.0000 C   0  0
    0.8042   -8.7357    0.0000 O   0  0
    0.9491   -6.3959    0.0000 N   0  0
    1.8565   -5.2005    0.0000 C   0  0
    1.2781   -3.8165    0.0000 C   0  0
    2.1852   -2.6281    0.0000 C   0  0
    3.6753   -2.8147    0.0000 C   0  0
    4.2537   -4.1987    0.0000 C   0  0
    3.3443   -5.3916    0.0000 C   0  0
    2.5889    0.0182    0.0000 C   0  0
    1.7138   -1.2033    0.0000 N   0  0
    0.2917   -0.7475    0.0000 C   0  0
    0.2917    0.7475    0.0000 C   0  0
    1.7138    1.2033    0.0000 N   0  0
   -1.0028    1.5132    0.0000 C   0  0
   -2.3155    0.7475    0.0000 C   0  0
   -2.3155   -0.7475    0.0000 C   0  0
   -1.0028   -1.5132    0.0000 C   0  0
    4.0896    0.0290    0.0000 C   0  0
    4.9234    1.2700    0.0000 C   0  0
    4.7453   -1.3220    0.0000 N   0  0
    6.4199    1.1671    0.0000 N   0  0
    7.0791   -0.1803    0.0000 C   0  0
    6.2418   -1.4248    0.0000 C   0  0
    7.2286   -5.1568    0.0000 N   0  0
    8.5770   -4.4998    0.0000 N   0  0
    8.3688   -3.0143    0.0000 C   0  0
    6.9013   -2.7729    0.0000 C   0  0
    6.1870   -4.0774    0.0000 C   0  0
    6.2216   -9.5371    0.0000 N   0  0
    7.6659   -9.1322    0.0000 C   0  0
    8.0374   -7.6789    0.0000 C   0  0
    6.9674   -6.6347    0.0000 C   0  0
    5.5202   -7.0355    0.0000 C   0  0
    5.1488   -8.4888    0.0000 C   0  0
    5.9245  -10.6998    0.0000 C   0  0
    4.3957    2.3477    0.0000 N   0  0
  1  2  1  0
  1  3  2  0
  1  4  1  0
  5  6  1  0
  6  7  2  0
  7  8  1  0
  8  9  2  0
  9 10  1  0
  5 10  2  0
 11 12  1  0
 12 13  1  0
 13 14  1  0
 14 15  1  0
 11 15  2  0
 16 17  1  0
 17 18  2  0
 18 19  1  0
 13 19  2  0
 14 16  2  0
 20 21  1  0
 20 22  2  0
 21 23  2  0
 23 24  1  0
 24 25  2  0
 22 25  1  0
 26 27  1  0
 27 28  2  0
 28 29  1  0
 29 30  2  0
 26 30  1  0
 31 32  1  0
 32 33  1  0
 33 34  1  0
 34 35  1  0
 35 36  1  0
 31 36  1  0
 31 37  1  0
 26 34  1  0
 25 29  1  0
 21 38  1  0
 11 20  1  0
  7 12  1  0
  4  5  1  0
M  END
> <chembl_id>
CHEMBL3814484

$$$$

  SciTegic10011413212D

 41 45  0  0  0  0            999 V2000
    8.4897   -6.0299    0.0000 C   0  0
    8.4897   -6.8471    0.0000 C   0  0
    9.1950   -7.2515    0.0000 N   0  0
    9.9003   -6.8471    0.0000 C   0  0
    9.9003   -6.0299    0.0000 C   0  0
    9.1950   -5.6172    0.0000 N   0  0
    9.1950   -8.0687    0.0000 C   0  0
    9.1954   -4.8008    0.0000 C   0  0
    9.9048   -4.3928    0.0000 C   0  0
    9.9051   -3.5764    0.0000 C   0  0
    9.1969   -3.1670    0.0000 C   0  0
    8.4868   -3.5800    0.0000 C   0  0
    8.4900   -4.3950    0.0000 C   0  0
    7.7777   -3.1739    0.0000 O   0  0
    7.0714   -3.5849    0.0000 C   0  0
    9.1958   -2.3498    0.0000 N   0  0
    9.9029   -1.9402    0.0000 C   0  0
   10.6095   -2.3521    0.0000 N   0  0
   10.6023   -0.7177    0.0000 C   0  0
    9.8986   -1.1289    0.0000 N   0  0
   11.3205   -1.9417    0.0000 C   0  0
   11.3155   -1.1252    0.0000 C   0  0
   11.9535   -0.6064    0.0000 C   0  0
   11.9677   -2.4489    0.0000 N   0  0
   12.7671   -2.2583    0.0000 C   0  0
   12.7518   -0.7778    0.0000 N   0  0
   13.1143   -1.5140    0.0000 C   0  0
   11.7627    0.1915    0.0000 O   0  0
   13.2836   -2.8916    0.0000 O   0  0
   11.7953   -3.2433    0.0000 C   0  0
   11.0152   -3.4903    0.0000 C   0  0
   10.8404   -4.2878    0.0000 C   0  0
   11.4448   -4.8391    0.0000 C   0  0
   12.2267   -4.5874    0.0000 C   0  0
   12.3978   -3.7904    0.0000 C   0  0
   12.8327   -5.1356    0.0000 N   0  0
   12.6610   -5.9345    0.0000 C   0  0
   13.2670   -6.4827    0.0000 C   0  0
   11.8832   -6.1852    0.0000 O   0  0
   13.0952   -7.2817    0.0000 C   0  0
   13.2543   -0.1334    0.0000 C   0  0
  1  2  1  0
  1  6  1  0
  2  3  1  0
  3  4  1  0
  4  5  1  0
  5  6  1  0
  3  7  1  0
  8  9  2  0
  9 10  1  0
 10 11  2  0
 11 12  1  0
 12 13  2  0
 13  8  1  0
  6  8  1  0
 12 14  1  0
 14 15  1  0
 11 16  1  0
 16 17  1  0
 17 18  2  0
 18 21  1  0
 22 19  1  0
 19 20  2  0
 20 17  1  0
 21 22  2  0
 22 23  1  0
 21 24  1  0
 23 26  1  0
 24 25  1  0
 25 27  1  0
 26 27  1  0
 23 28  2  0
 25 29  2  0
 30 31  2  0
 31 32  1  0
 32 33  2  0
 33 34  1  0
 34 35  2  0
 35 30  1  0
 24 30  1  0
 34 36  1  0
 36 37  1  0
 37 38  1  0
 37 39  2  0
 38 40  2  0
 26 41  1  0
M  END
> <chembl_id>
CHEMBL3219125

$$$$

  SciTegic09081514162D

 41 44  0  0  0  0            999 V2000
    1.2990   -0.7500    0.0000 N   0  0
    1.2990    0.7500    0.0000 C   0  0
    0.0000    1.5000    0.0000 N   0  0
   -1.2990    0.7500    0.0000 C   0  0
   -1.2990   -0.7500    0.0000 C   0  0
    0.0000   -1.5000    0.0000 C   0  0
   -2.5973    1.5031    0.0000 O   0  0
    2.5972    1.5031    0.0000 N   0  0
    2.5951    3.0039    0.0000 C   0  0
   -3.8990    0.7562    0.0000 C   0  0
   -5.1976    1.5069    0.0000 C   0  0
   -6.4972    0.7578    0.0000 C   0  0
   -6.4981   -0.7422    0.0000 C   0  0
   -5.1996   -1.4931    0.0000 C   0  0
   -3.9001   -0.7439    0.0000 C   0  0
    3.8915    3.7585    0.0000 C   0  0
    3.8863    5.2585    0.0000 C   0  0
    2.5847    6.0040    0.0000 C   0  0
    1.2883    5.2495    0.0000 C   0  0
    1.2934    3.7495    0.0000 C   0  0
    2.5795    7.5047    0.0000 N   0  0
    3.8747    8.2614    0.0000 C   0  0
    3.8671    9.7614    0.0000 C   0  0
    2.5643   10.5048    0.0000 N   0  0
    1.2691    9.7483    0.0000 C   0  0
    1.2767    8.2483    0.0000 C   0  0
   -2.3383   -1.3500    0.0000 Cl  0  0
   -5.1975   -2.9939    0.0000 N   0  0
   -3.8972   -3.7433    0.0000 C   0  0
   -3.8950   -5.2441    0.0000 C   0  0
   -2.8586   -3.1422    0.0000 O   0  0
   -2.5947   -5.9935    0.0000 C   0  0
    2.5583   11.7048    0.0000 C   0  0
    5.1954    3.0153    0.0000 O   0  0
    6.2317    3.6204    0.0000 C   0  0
   -5.1940   -5.9960    0.0000 C   0  0
   -6.2326   -6.5971    0.0000 N   0  0
   -2.5926   -7.4944    0.0000 C   0  0
   -1.5529   -8.0936    0.0000 C   0  0
   -3.6312   -8.0955    0.0000 C   0  0
   -2.5915   -8.6944    0.0000 C   0  0
  1  2  2  0
  2  3  1  0
  3  4  2  0
  4  5  1  0
  5  6  2  0
  6  1  1  0
  4  7  1  0
  2  8  1  0
  8  9  1  0
  7 10  1  0
 10 11  2  0
 11 12  1  0
 12 13  2  0
 13 14  1  0
 14 15  2  0
 15 10  1  0
  9 16  2  0
 16 17  1  0
 17 18  2  0
 18 19  1  0
 19 20  2  0
 20  9  1  0
 21 22  1  0
 22 23  1  0
 23 24  1  0
 24 25  1  0
 25 26  1  0
 26 21  1  0
 18 21  1  0
  5 27  1  0
 14 28  1  0
 28 29  1  0
 29 30  1  0
 29 31  2  0
 30 32  2  0
 24 33  1  0
 16 34  1  0
 34 35  1  0
 30 36  1  0
 36 37  3  0
 32 38  1  0
 38 39  1  0
 38 40  1  0
 38 41  1  0
M  END
> <chembl_id>
CHEMBL3425666

$$$$

  SciTegic04191617032D

 37 41  0  0  0  0            999 V2000
    0.6245   -8.9760    0.0000 C   0  0
    1.2077  -10.3580    0.0000 C   0  0
    2.6962  -10.5439    0.0000 C   0  0
    3.6014   -9.3479    0.0000 C   0  0
    3.0182   -7.9659    0.0000 C   0  0
    1.5297   -7.7799    0.0000 C   0  0
    3.2796  -11.9266    0.0000 N   0  0
    2.3763  -13.1242    0.0000 C   0  0
    2.9617  -14.5053    0.0000 C   0  0
    4.4504  -14.6888    0.0000 N   0  0
    5.3538  -13.4914    0.0000 C   0  0
    4.7684  -12.1103    0.0000 C   0  0
    4.9187  -15.7937    0.0000 C   0  0
   -0.8651   -8.7930    0.0000 O   0  0
   -1.5879   -9.7509    0.0000 C   0  0
    0.9491   -6.3959    0.0000 N   0  0
    1.8565   -5.2005    0.0000 C   0  0
    1.2781   -3.8165    0.0000 N   0  0
    2.1852   -2.6281    0.0000 C   0  0
    3.6753   -2.8147    0.0000 C   0  0
    4.2537   -4.1987    0.0000 C   0  0
    3.3443   -5.3916    0.0000 N   0  0
    1.7138   -1.2033    0.0000 C   0  0
    2.5889    0.0182    0.0000 C   0  0
    1.7138    1.2033    0.0000 N   0  0
    0.2917   -0.7475    0.0000 C   0  0
    0.2917    0.7475    0.0000 C   0  0
   -1.0028    1.5132    0.0000 C   0  0
   -2.3155    0.7475    0.0000 C   0  0
   -2.3155   -0.7475    0.0000 C   0  0
   -1.0028   -1.5132    0.0000 C   0  0
    5.0910   -9.5309    0.0000 N   0  0
    5.9951   -8.3329    0.0000 C   0  0
    7.4847   -8.5159    0.0000 C   0  0
    5.5266   -7.2281    0.0000 O   0  0
    8.2076   -7.5580    0.0000 C   0  0
    2.0825    2.3453    0.0000 C   0  0
  1  2  2  0
  2  3  1  0
  3  4  2  0
  4  5  1  0
  5  6  2  0
  6  1  1  0
  7  8  1  0
  7 12  1  0
  8  9  1  0
  9 10  1  0
 10 11  1  0
 11 12  1  0
  3  7  1  0
 10 13  1  0
  1 14  1  0
 14 15  1  0
  6 16  1  0
 16 17  1  0
 17 18  2  0
 18 19  1  0
 19 20  2  0
 20 21  1  0
 21 22  2  0
 22 17  1  0
 19 23  1  0
 23 24  2  0
 24 25  1  0
 25 27  1  0
 26 23  1  0
 26 27  2  0
 27 28  1  0
 28 29  2  0
 29 30  1  0
 30 31  2  0
 31 26  1  0
  4 32  1  0
 32 33  1  0
 33 34  1  0
 33 35  2  0
 34 36  2  0
 25 37  1  0
M  END
> <chembl_id>
CHEMBL3604943

$$$$

  SciTegic04091414152D

 40 45  0  0  0  0            999 V2000
   12.0318   -2.3082    0.0000 N   0  0
   12.0306   -3.1356    0.0000 C   0  0
   12.7454   -3.5484    0.0000 N   0  0
   12.7436   -1.8955    0.0000 C   0  0
   13.4590   -2.3046    0.0000 C   0  0
   13.4598   -3.1315    0.0000 C   0  0
   14.1750   -3.5424    0.0000 N   0  0
   14.8901   -3.1277    0.0000 C   0  0
   14.8853   -2.2977    0.0000 N   0  0
   14.1695   -1.8905    0.0000 C   0  0
   11.3158   -3.5475    0.0000 N   0  0
   15.6061   -3.5373    0.0000 O   0  0
   15.5973   -1.8809    0.0000 C   0  0
   11.3152   -4.3725    0.0000 C   0  0
   10.6003   -4.7829    0.0000 C   0  0
   10.5993   -5.6071    0.0000 C   0  0
   11.3140   -6.0210    0.0000 C   0  0
   12.0311   -5.6047    0.0000 C   0  0
   12.0286   -4.7818    0.0000 C   0  0
   11.3144   -6.8460    0.0000 N   0  0
   10.5997   -7.2595    0.0000 C   0  0
   10.5982   -8.0810    0.0000 C   0  0
   11.3110   -8.4969    0.0000 N   0  0
   12.0271   -8.0852    0.0000 C   0  0
   12.0303   -7.2576    0.0000 C   0  0
   11.3084   -9.3219    0.0000 C   0  0
   14.1767   -4.3674    0.0000 C   0  0  1  0  0  0
   13.5127   -4.8531    0.0000 C   0  0
   13.7692   -5.6372    0.0000 C   0  0
   14.5942   -5.6355    0.0000 N   0  0
   14.8474   -4.8504    0.0000 C   0  0
   15.0015   -6.3531    0.0000 C   0  0
   14.5841   -7.0647    0.0000 C   0  0
   15.8264   -6.3588    0.0000 O   0  0
   14.9915   -7.7820    0.0000 C   0  0
   16.3116   -2.2918    0.0000 C   0  0
   17.0214   -1.8785    0.0000 C   0  0
   17.0206   -1.0532    0.0000 C   0  0
   16.3038   -0.6428    0.0000 C   0  0
   15.5878   -1.0578    0.0000 C   0  0
  1  2  2  0
  2  3  1  0
  3  6  2  0
  5  4  2  0
  4  1  1  0
  5  6  1  0
  6  7  1  0
  7  8  1  0
  8  9  1  0
  9 10  1  0
 10  5  1  0
  2 11  1  0
  8 12  2  0
  9 13  1  0
 11 14  1  0
 14 15  2  0
 15 16  1  0
 16 17  2  0
 17 18  1  0
 18 19  2  0
 19 14  1  0
 17 20  1  0
 20 21  1  0
 20 25  1  0
 21 22  1  0
 22 23  1  0
 23 24  1  0
 24 25  1  0
 23 26  1  0
 27  7  1  6
 27 28  1  0
 28 29  1  0
 29 30  1  0
 30 31  1  0
 31 27  1  0
 30 32  1  0
 32 33  1  0
 32 34  2  0
 33 35  2  0
 13 36  2  0
 13 40  1  0
 36 37  1  0
 37 38  2  0
 38 39  1  0
 39 40  2  0
M  END
> <chembl_id>
CHEMBL3087196

$$$$

  SciTegic12131615502D

 41 46  0  0  0  0            999 V2000
    3.7345    1.5436    0.0000 C   0  0
    4.8300    2.8133    0.0000 C   0  0
    3.7345    0.0000    0.0000 C   0  0
    6.1246    2.2656    0.0000 C   0  0
    5.2034   -0.5726    0.0000 C   0  0
    6.1246    0.5726    0.0000 C   0  0
    2.5893   -0.5726    0.0000 C   0  0
    3.5602    0.5726    0.0000 C   0  0
    3.5602    2.2656    0.0000 C   0  0
    5.0291    0.0249    0.0000 C   0  0
    2.1833    1.1556    0.0000 C   0  0
   -1.5951   -0.0674    0.0000 C   0  0
   -2.9758    0.5191    0.0000 C   0  0
   -3.1582    2.0079    0.0000 C   0  0
   -1.9600    2.9103    0.0000 C   0  0
   -0.5794    2.3239    0.0000 C   0  0
   -0.3969    0.8350    0.0000 C   0  0
   -4.5383    2.5976    0.0000 N   0  0
   -5.0883    7.0595    0.0000 N   0  0
   -3.6914    6.4784    0.0000 C   0  0
   -3.5071    4.9925    0.0000 N   0  0
   -4.7187    4.0875    0.0000 C   0  0
   -6.0984    4.6711    0.0000 C   0  0
   -7.2928    3.7685    0.0000 C   0  0
   -8.6715    4.3519    0.0000 C   0  0
   -8.8558    5.8377    0.0000 C   0  0
   -7.6614    6.7403    0.0000 C   0  0
   -6.2827    6.1569    0.0000 C   0  0
   -9.8671    3.4447    0.0000 O   0  0
   -9.6803    1.9555    0.0000 C   0  0
  -10.8759    1.0483    0.0000 C   0  0
  -10.2369    6.4253    0.0000 O   0  0
  -10.4196    7.9150    0.0000 C   0  0
    0.9857    0.2510    0.0000 N   0  0
  -10.6890   -0.4408    0.0000 O   0  0
  -11.6450   -1.1662    0.0000 C   0  0
  -11.8006    8.5025    0.0000 C   0  0
  -11.9832    9.9922    0.0000 O   0  0
  -13.0875   10.4619    0.0000 C   0  0
   -1.4492   -1.2585    0.0000 C   0  0
    2.0353    2.3464    0.0000 O   0  0
  1  2  1  0
  1  3  1  0
  2  4  1  0
  3  5  1  0
  4  6  1  0
  5  6  1  0
  7  8  1  0
  3  7  1  0
  2  9  1  0
  6 10  1  0
 10  8  1  0
  8  9  1  0
 11  8  1  0
 12 13  1  0
 13 14  2  0
 14 15  1  0
 15 16  2  0
 16 17  1  0
 12 17  2  0
 19 20  1  0
 20 21  2  0
 21 22  1  0
 22 23  2  0
 23 24  1  0
 24 25  2  0
 25 26  1  0
 26 27  2  0
 27 28  1  0
 19 28  2  0
 23 28  1  0
 30 31  1  0
 29 30  1  0
 25 29  1  0
 32 33  1  0
 26 32  1  0
 18 22  1  0
 14 18  1  0
 17 34  1  0
 34 11  1  0
 31 35  1  0
 35 36  1  0
 33 37  1  0
 37 38  1  0
 38 39  1  0
 12 40  1  0
 11 41  2  0
M  END
> <chembl_id>
CHEMBL3764589

$$$$

  SciTegic01161211252D

 40 44  0  0  0  0            999 V2000
   -0.7960    2.3872    0.0000 C   0  0
   -0.7990    1.5597    0.0000 C   0  0
   -0.0851    1.1452    0.0000 C   0  0
    0.6323    1.5569    0.0000 C   0  0
    0.6314    2.3875    0.0000 C   0  0
   -0.0830    2.7983    0.0000 C   0  0
   -1.5095    2.8011    0.0000 C   0  0
    1.3467    1.1439    0.0000 C   0  0
    1.3460    0.3188    0.0000 O   0  0
    2.0615    1.5559    0.0000 N   0  0
    2.7757    1.1429    0.0000 C   0  0
    2.7704    0.3193    0.0000 C   0  0
    3.4838   -0.0937    0.0000 C   0  0
    4.1996    0.3184    0.0000 C   0  0
    4.1975    1.1478    0.0000 C   0  0
    3.4836    1.5570    0.0000 C   0  0
    4.9109    1.5622    0.0000 C   0  0
    5.6266    1.1518    0.0000 F   0  0
    4.9086    2.3874    0.0000 F   0  0
    5.6217    1.9806    0.0000 F   0  0
    4.9144   -0.0937    0.0000 C   0  0
    4.9149   -0.9188    0.0000 N   0  0
    4.1973   -1.3262    0.0000 C   0  0
    4.1958   -2.1477    0.0000 C   0  0
    4.9088   -2.5637    0.0000 N   0  0
    5.6249   -2.1520    0.0000 C   0  0
    5.6280   -1.3242    0.0000 C   0  0
    4.9062   -3.3888    0.0000 C   0  0
    5.6194   -3.8035    0.0000 C   0  0
   -1.5147    1.1494    0.0000 C   0  0
   -2.2359    0.7445    0.0000 C   0  0
   -2.9535    0.3378    0.0000 C   0  0
   -3.6641    0.7589    0.0000 C   0  0
   -3.6722   -0.8910    0.0000 N   0  0
   -2.9580   -0.4824    0.0000 C   0  0
   -4.3883   -0.4728    0.0000 C   0  0
   -4.3782    0.3502    0.0000 C   0  0
   -5.1579    0.6142    0.0000 C   0  0
   -5.6499   -0.0458    0.0000 C   0  0
   -5.1743   -0.7176    0.0000 N   0  0
 17 20  1  0
  8 10  1  0
 14 21  1  0
  2  3  1  0
 21 22  1  0
 22 23  1  0
 10 11  1  0
  5  6  2  0
 11 12  2  0
  6  1  1  0
 12 13  1  0
 22 27  1  0
 23 24  1  0
 24 25  1  0
 25 26  1  0
 26 27  1  0
  1  2  2  0
 25 28  1  0
 13 14  2  0
 28 29  1  0
  1  7  1  0
  2 30  1  0
 14 15  1  0
 30 31  3  0
  3  4  2  0
 31 32  1  0
 15 16  2  0
 32 33  2  0
 16 11  1  0
 33 37  1  0
  4  8  1  0
 15 17  1  0
 36 34  1  0
 34 35  2  0
 35 32  1  0
 36 37  2  0
 17 18  1  0
  8  9  2  0
 17 19  1  0
  4  5  1  0
 37 38  1  0
 38 39  2  0
 39 40  1  0
 40 36  1  0
M  END
> <chembl_id>
CHEMBL1170139

$$$$

  SciTegic09081514182D

 38 39  0  0  0  0            999 V2000
    1.2990   -0.7500    0.0000 C   0  0
    1.2990    0.7500    0.0000 C   0  0
    0.0000    1.5000    0.0000 C   0  0
   -1.2990    0.7500    0.0000 C   0  0
   -1.2990   -0.7500    0.0000 C   0  0
    0.0000   -1.5000    0.0000 C   0  0
   -2.5972   -1.5031    0.0000 C   0  0
   -2.5951   -3.0039    0.0000 C   0  0
   -3.8933   -3.7570    0.0000 C   0  0
   -3.8912   -5.2578    0.0000 C   0  0
   -4.9336   -3.1588    0.0000 O   0  0
   -5.1894   -6.0109    0.0000 C   0  0
   -5.1872   -7.5117    0.0000 C   0  0
   -6.2296   -5.4127    0.0000 O   0  0
   -6.4854   -8.2648    0.0000 C   0  0
   -6.4833   -9.7657    0.0000 C   0  0
   -7.7797  -10.5203    0.0000 C   0  0
   -7.7745  -12.0202    0.0000 C   0  0
   -6.4729  -12.7657    0.0000 C   0  0
   -5.1764  -12.0112    0.0000 C   0  0
   -5.1816  -10.5113    0.0000 C   0  0
    2.5973   -1.5031    0.0000 O   0  0
    2.5972    1.5031    0.0000 O   0  0
   -6.4646  -14.2666    0.0000 O   0  0
   -3.8726  -12.7545    0.0000 O   0  0
    2.5956   -2.7031    0.0000 C   0  0
    2.5955    2.7031    0.0000 C   0  0
   -2.8363  -12.1494    0.0000 C   0  0
   -5.4224  -14.8615    0.0000 C   0  0
   -2.5916   -6.0087    0.0000 C   0  0
   -2.5912   -7.5095    0.0000 C   0  0
   -1.2916   -8.2603    0.0000 C   0  0
   -0.2524   -7.6603    0.0000 O   0  0
   -1.2912   -9.7611    0.0000 O   0  0
    0.0000    2.7000    0.0000 O   0  0
   -8.8116  -12.6238    0.0000 O   0  0
    0.0084  -10.5119    0.0000 C   0  0
    0.0087  -11.7119    0.0000 C   0  0
  1  2  2  0
  2  3  1  0
  3  4  2  0
  4  5  1  0
  5  6  2  0
  6  1  1  0
  5  7  1  0
  7  8  2  0
  8  9  1  0
  9 10  2  0
  9 11  1  0
 10 12  1  0
 12 13  1  0
 12 14  2  0
 13 15  2  0
 15 16  1  0
 16 17  2  0
 17 18  1  0
 18 19  2  0
 19 20  1  0
 20 21  2  0
 21 16  1  0
  1 22  1  0
  2 23  1  0
 19 24  1  0
 20 25  1  0
 22 26  1  0
 23 27  1  0
 25 28  1  0
 24 29  1  0
 10 30  1  0
 30 31  1  0
 31 32  1  0
 32 33  2  0
 32 34  1  0
  3 35  1  0
 18 36  1  0
 34 37  1  0
 37 38  1  0
M  END
> <chembl_id>
CHEMBL3402865

$$$$

  SciTegic12231509382D

 34 37  0  0  0  0            999 V2000
    0.0000    0.7486    0.0000 C   0  0
    1.2964    1.4973    0.0000 C   0  0
   -1.2964    1.4973    0.0000 C   0  0
    0.0000   -0.7486    0.0000 C   0  0
   -2.6111    0.7486    0.0000 C   0  0
    2.5929    0.7486    0.0000 N   0  0
   -1.2964   -1.4973    0.0000 C   0  0
    1.2995    2.9981    0.0000 N   0  0
   -3.9091    1.5019    0.0000 N   0  0
   -2.6111   -0.7486    0.0000 C   0  0
   -3.9067    3.0027    0.0000 C   0  0
    3.9072    5.9922    0.0000 C   0  0
    1.2964   -1.4973    0.0000 N   0  0
    2.6056    5.2467    0.0000 C   0  0
   -6.5006   -6.0101    0.0000 N   0  0
    2.5929   -0.7486    0.0000 C   0  0
    2.6003    3.7467    0.0000 C   0  0
    5.2037    5.2377    0.0000 C   0  0
   -5.2049    3.7560    0.0000 C   0  0
   -2.8664    3.6008    0.0000 O   0  0
   -9.0986   -7.5105    0.0000 O   0  0
    5.1985    3.7377    0.0000 C   0  0
   -5.2030    4.9560    0.0000 C   0  0
    3.9114    7.1922    0.0000 Cl  0  0
    3.8969    2.9922    0.0000 C   0  0
    6.2450    5.8341    0.0000 F   0  0
   -3.9091   -1.5019    0.0000 O   0  0
   -5.2025   -5.2568    0.0000 C   0  0
   -5.2049   -3.7560    0.0000 C   0  0
   -6.5005   -7.5101    0.0000 C   0  0
   -7.7999   -5.2603    0.0000 C   0  0
   -7.7994   -8.2603    0.0000 C   0  0
   -9.0988   -6.0105    0.0000 C   0  0
   -3.9067   -3.0027    0.0000 C   0  0
  1  2  2  0
  1  3  1  0
  1  4  1  0
  3  5  2  0
  2  6  1  0
  4  7  1  0
  2  8  1  0
  5  9  1  0
  5 10  1  0
  7 10  2  0
  9 11  1  0
  4 13  2  0
 12 14  1  0
  6 16  2  0
 13 16  1  0
  8 17  1  0
 14 17  2  0
 12 18  2  0
 11 19  1  0
 11 20  2  0
 18 22  1  0
 19 23  2  0
 12 24  1  0
 17 25  1  0
 22 25  2  0
 18 26  1  0
 10 27  1  0
 15 28  1  0
 28 29  1  0
 15 30  1  0
 15 31  1  0
 21 32  1  0
 30 32  1  0
 21 33  1  0
 31 33  1  0
 27 34  1  0
 29 34  1  0
M  END
> <chembl_id>
CHEMBL31965

$$$$

  Mrv0541 05211314572D          

 25 26  0  0  0  0            999 V2000
    6.1262   -2.6667    0.0000 C   0  0  0  0  0  0  0  0  0  0  0  0
    5.4117   -3.0792    0.0000 C   0  0  0  0  0  0  0  0  0  0  0  0
    4.6973   -2.6667    0.0000 C   0  0  0  0  0  0  0  0  0  0  0  0
    4.6973   -1.8417    0.0000 C   0  0  0  0  0  0  0  0  0  0  0  0
    5.4117   -1.4292    0.0000 C   0  0  0  0  0  0  0  0  0  0  0  0
    6.1262   -1.8417    0.0000 C   0  0  0  0  0  0  0  0  0  0  0  0
    5.4117   -3.9042    0.0000 O   0  0  0  0  0  0  0  0  0  0  0  0
    6.8407   -3.0792    0.0000 O   0  0  0  0  0  0  0  0  0  0  0  0
    5.4117   -0.6042    0.0000 C   0  0  0  0  0  0  0  0  0  0  0  0
    6.1262   -0.1917    0.0000 C   0  0  0  0  0  0  0  0  0  0  0  0
    6.1262    0.6333    0.0000 C   0  0  0  0  0  0  0  0  0  0  0  0
    6.8407    1.0458    0.0000 C   0  0  0  0  0  0  0  0  0  0  0  0
    5.4117    1.0458    0.0000 O   0  0  0  0  0  0  0  0  0  0  0  0
    6.8407    1.8708    0.0000 C   0  0  0  0  0  0  0  0  0  0  0  0
    7.5552    2.2833    0.0000 C   0  0  0  0  0  0  0  0  0  0  0  0
    6.1262    2.2833    0.0000 O   0  0  0  0  0  0  0  0  0  0  0  0
    7.5552    3.1083    0.0000 C   0  0  0  0  0  0  0  0  0  0  0  0
    8.2696    3.5208    0.0000 C   0  0  0  0  0  0  0  0  0  0  0  0
    8.2696    4.3458    0.0000 C   0  0  0  0  0  0  0  0  0  0  0  0
    8.9841    4.7583    0.0000 C   0  0  0  0  0  0  0  0  0  0  0  0
    9.6986    4.3458    0.0000 C   0  0  0  0  0  0  0  0  0  0  0  0
    9.6986    3.5208    0.0000 C   0  0  0  0  0  0  0  0  0  0  0  0
    8.9841    3.1083    0.0000 C   0  0  0  0  0  0  0  0  0  0  0  0
   10.4130    3.1083    0.0000 O   0  0  0  0  0  0  0  0  0  0  0  0
   10.4130    4.7583    0.0000 O   0  0  0  0  0  0  0  0  0  0  0  0
  6  1  1  0  0  0  0
 11 13  2  0  0  0  0
  1  2  2  0  0  0  0
 12 14  2  0  0  0  0
  2  7  1  0  0  0  0
 14 15  1  0  0  0  0
  3  4  2  0  0  0  0
 14 16  1  0  0  0  0
  1  8  1  0  0  0  0
 15 17  2  0  0  0  0
 17 18  1  0  0  0  0
  5  9  1  0  0  0  0
 18 19  2  0  0  0  0
  4  5  1  0  0  0  0
 19 20  1  0  0  0  0
  9 10  2  0  0  0  0
 20 21  2  0  0  0  0
  2  3  1  0  0  0  0
 21 22  1  0  0  0  0
 10 11  1  0  0  0  0
 22 23  2  0  0  0  0
 23 18  1  0  0  0  0
  5  6  2  0  0  0  0
 22 24  1  0  0  0  0
 11 12  1  0  0  0  0
 21 25  1  0  0  0  0
M  END
> <chembl_id>
CHEMBL129964

$$$$

  SciTegic12211612572D

 33 38  0  0  0  0            999 V2000
   -9.2439    2.5272    0.0000 C   0  0
  -10.2738    1.4434    0.0000 C   0  0
   -9.8497   -0.0159    0.0000 C   0  0
   -7.7649    2.1780    0.0000 C   0  0
   -7.3540    0.7312    0.0000 N   0  0
   -8.3838   -0.3525    0.0000 C   0  0
   -7.6669   -1.6625    0.0000 N   0  0
   -6.1911   -1.3799    0.0000 N   0  0
   -6.0264    0.0739    0.0000 C   0  0
   -9.6724    3.9655    0.0000 C   0  0
   -8.7548    5.1360    0.0000 C   0  0
   -9.6062    6.3709    0.0000 N   0  0
  -11.0438    5.9428    0.0000 N   0  0
  -11.0808    4.4432    0.0000 C   0  0
   -9.2074    7.5027    0.0000 C   0  0
   -4.7055    0.7863    0.0000 S   0  0
   -3.4277    0.0000    0.0000 C   0  0
   -2.1332    0.6928    0.0000 C   0  0
   -2.1332   -2.2973    0.0000 C   0  0
   -3.4277   -1.5498    0.0000 C   0  0
   -0.8205   -1.5498    0.0000 C   0  0
   -0.8205    0.0000    0.0000 C   0  0
    1.7503   -1.5498    0.0000 C   0  0
    0.4558   -2.2973    0.0000 N   0  0
    1.7503    0.0000    0.0000 C   0  0
    0.4558    0.6928    0.0000 C   0  0
    0.4558    2.1879    0.0000 O   0  0
    1.7503    2.9537    0.0000 C   0  0
    3.0631    2.1879    0.0000 C   0  0
    3.0631    0.6928    0.0000 N   0  0
    4.1036    2.7856    0.0000 O   0  0
  -10.6736   -0.8883    0.0000 F   0  0
    4.0907    0.0732    0.0000 C   0  0
  1  2  1  0
  1  4  2  0
  2  3  2  0
  3  6  1  0
  5  4  1  0
  5  6  1  0
  6  7  2  0
  7  8  1  0
  8  9  2  0
  9  5  1  0
 10 11  2  0
 11 12  1  0
 12 13  1  0
 13 14  2  0
 14 10  1  0
  1 10  1  0
 12 15  1  0
  9 16  1  0
 16 17  1  0
 17 18  2  0
 18 22  1  0
 21 19  1  0
 19 20  2  0
 20 17  1  0
 21 22  1  0
 22 26  2  0
 25 23  2  0
 23 24  1  0
 24 21  2  0
 25 26  1  0
 25 30  1  0
 26 27  1  0
 27 28  1  0
 28 29  1  0
 29 30  1  0
 29 31  2  0
  3 32  1  0
 30 33  1  0
M  END
> <chembl_id>
CHEMBL3818247

$$$$

  SciTegic12201611512D

 30 34  0  0  0  0            999 V2000
   -2.1332   -2.2973    0.0000 N   0  0
   -3.4277   -1.5498    0.0000 C   0  0
   -3.4277    0.0000    0.0000 N   0  0
   -2.1332    0.6928    0.0000 C   0  0
   -0.8205    0.0000    0.0000 C   0  0
    0.4558    0.6928    0.0000 C   0  0
    1.7503    0.0000    0.0000 C   0  0
    1.7503   -1.5498    0.0000 C   0  0
    0.4558   -2.2973    0.0000 C   0  0
   -0.8205   -1.5498    0.0000 C   0  0
    0.4558    2.1879    0.0000 O   0  0
    3.0631    0.6928    0.0000 O   0  0
    3.0631    2.1879    0.0000 C   0  0
    1.7503    2.9537    0.0000 C   0  0
   -2.1454    2.1947    0.0000 N   0  0
    3.0410   -2.3153    0.0000 O   0  0
    3.0239   -3.8160    0.0000 C   0  0
   -3.4508    2.9353    0.0000 C   0  0
   -3.4653    4.4352    0.0000 C   0  0
   -4.7714    5.1728    0.0000 C   0  0
   -6.0632    4.4104    0.0000 C   0  0
   -6.0489    2.9104    0.0000 C   0  0
   -4.7427    2.1729    0.0000 C   0  0
   -7.1082    5.0004    0.0000 F   0  0
   -4.7829    6.3727    0.0000 Cl  0  0
    4.3129   -4.5833    0.0000 C   0  0
    4.2931   -6.0831    0.0000 C   0  0
    2.9842   -6.8159    0.0000 O   0  0
    1.6952   -6.0488    0.0000 C   0  0
    1.7151   -4.5489    0.0000 C   0  0
  1  2  1  0
  2  3  2  0
  3  4  1  0
  4  5  2  0
  5  6  1  0
  6  7  2  0
  7  8  1  0
  8  9  2  0
  9 10  1  0
  1 10  2  0
  5 10  1  0
 12 13  1  0
 13 14  1  0
 11 14  1  0
  6 11  1  0
  7 12  1  0
  4 15  1  0
 16 17  1  0
  8 16  1  0
 18 19  1  0
 19 20  2  0
 20 21  1  0
 21 22  2  0
 22 23  1  0
 18 23  2  0
 21 24  1  0
 20 25  1  0
 15 18  1  0
 17 26  1  0
 17 30  1  0
 26 27  1  0
 27 28  1  0
 28 29  1  0
 29 30  1  0
M  END
> <chembl_id>
CHEMBL3806222

$$$$

  SciTegic04191617032D

 36 40  0  0  0  0            999 V2000
    4.6488    1.8163    0.0000 C   0  0
    6.1174    2.1217    0.0000 C   0  0
    6.5873    3.5462    0.0000 N   0  0
    5.5886    4.6654    0.0000 C   0  0
    4.1200    4.3600    0.0000 N   0  0
    3.6500    2.9355    0.0000 C   0  0
    6.0558    6.0916    0.0000 O   0  0
    5.0549    7.2100    0.0000 C   0  0
    2.1812    2.6271    0.0000 N   0  0
    1.7138    1.2033    0.0000 C   0  0
    1.7138   -1.2033    0.0000 N   0  0
    2.5889    0.0182    0.0000 N   0  0
    0.2917   -0.7475    0.0000 C   0  0
    0.2917    0.7475    0.0000 C   0  0
   -1.0028    1.5132    0.0000 C   0  0
   -2.3155    0.7475    0.0000 C   0  0
   -2.3155   -0.7475    0.0000 C   0  0
   -1.0028   -1.5132    0.0000 C   0  0
    5.5198    8.6362    0.0000 C   0  0
    4.5172    9.7519    0.0000 C   0  0
    3.0497    9.4415    0.0000 C   0  0
    2.5848    8.0154    0.0000 C   0  0
    3.5873    6.8996    0.0000 C   0  0
    1.1170    7.7018    0.0000 N   0  0
    0.6539    6.2742    0.0000 C   0  0
   -0.8138    5.9606    0.0000 C   0  0
   -1.1842    4.8192    0.0000 C   0  0
    1.4575    5.3830    0.0000 O   0  0
    7.1166    1.0019    0.0000 N   0  0
    6.6491   -0.4234    0.0000 C   0  0
    7.6496   -1.5410    0.0000 C   0  0
    9.1177   -1.2333    0.0000 N   0  0
    9.5853    0.1919    0.0000 C   0  0
    8.5848    1.3095    0.0000 C   0  0
    9.9181   -2.1274    0.0000 C   0  0
   -3.3560    1.3452    0.0000 Br  0  0
  1  2  2  0
  2  3  1  0
  3  4  2  0
  4  5  1  0
  5  6  2  0
  6  1  1  0
  4  7  1  0
  7  8  1  0
  6  9  1  0
  9 10  1  0
 10 14  1  0
 13 11  1  0
 11 12  1  0
 12 10  2  0
 13 14  2  0
 14 15  1  0
 15 16  2  0
 16 17  1  0
 17 18  2  0
 18 13  1  0
  8 19  2  0
 19 20  1  0
 20 21  2  0
 21 22  1  0
 22 23  2  0
 23  8  1  0
 22 24  1  0
 24 25  1  0
 25 26  1  0
 26 27  2  0
 25 28  2  0
  2 29  1  0
 29 30  1  0
 29 34  1  0
 30 31  1  0
 31 32  1  0
 32 33  1  0
 33 34  1  0
 32 35  1  0
 16 36  1  0
M  END
> <chembl_id>
CHEMBL3604940

$$$$

  SciTegic04191617032D

 31 34  0  0  0  0            999 V2000
    1.2990   -0.7500    0.0000 C   0  0
    1.2990    0.7500    0.0000 C   0  0
    0.0000    1.5000    0.0000 N   0  0
   -1.2990    0.7500    0.0000 C   0  0
   -1.2990   -0.7500    0.0000 N   0  0
    0.0000   -1.5000    0.0000 C   0  0
    0.0031   -3.0008    0.0000 N   0  0
    1.3039   -3.7494    0.0000 C   0  0
    1.4469   -5.2297    0.0000 C   0  0
    2.9152   -5.5365    0.0000 C   0  0
    3.6607   -4.2349    0.0000 N   0  0
    2.6532   -3.1236    0.0000 N   0  0
   -2.6003    1.4977    0.0000 O   0  0
   -3.8990    0.7455    0.0000 C   0  0
   -5.2007    1.4909    0.0000 C   0  0
   -6.4972    0.7364    0.0000 C   0  0
   -6.4920   -0.7636    0.0000 C   0  0
   -5.1903   -1.5091    0.0000 C   0  0
   -3.8939   -0.7546    0.0000 C   0  0
    2.5987    1.5004    0.0000 N   0  0
    3.8991    0.7525    0.0000 C   0  0
    5.1969    1.5046    0.0000 C   0  0
    5.1945    3.0046    0.0000 N   0  0
    3.8943    3.7525    0.0000 C   0  0
    2.5964    3.0004    0.0000 C   0  0
    6.2328    3.6062    0.0000 C   0  0
   -5.1821   -3.0099    0.0000 N   0  0
   -3.8787   -3.7540    0.0000 C   0  0
   -3.8704   -5.2548    0.0000 C   0  0
   -2.8426   -3.1486    0.0000 O   0  0
   -2.8282   -5.8497    0.0000 C   0  0
  1  2  2  0
  2  3  1  0
  3  4  2  0
  4  5  1  0
  5  6  2  0
  6  1  1  0
  6  7  1  0
  7  8  1  0
  8  9  1  0
  9 10  2  0
 10 11  1  0
 11 12  1  0
 12  8  2  0
  4 13  1  0
 13 14  1  0
 14 15  2  0
 15 16  1  0
 16 17  2  0
 17 18  1  0
 18 19  2  0
 19 14  1  0
  2 20  1  0
 20 21  1  0
 20 25  1  0
 21 22  1  0
 22 23  1  0
 23 24  1  0
 24 25  1  0
 23 26  1  0
 18 27  1  0
 27 28  1  0
 28 29  1  0
 28 30  2  0
 29 31  1  0
M  END
> <chembl_id>
CHEMBL3604934

$$$$

  SciTegic01161211212D

 34 38  0  0  0  0            999 V2000
   25.5454  -10.8912    0.0000 C   0  0
   25.5472  -11.7230    0.0000 C   0  0
   26.2559  -12.1253    0.0000 N   0  0
   26.2521  -10.4748    0.0000 C   0  0
   26.9686  -10.8806    0.0000 C   0  0
   26.9725  -11.7138    0.0000 C   0  0
   28.3960  -11.7070    0.0000 C   0  0
   27.6719  -10.4738    0.0000 N   0  0
   27.6719   -9.6489    0.0000 C   0  0
   28.4033  -10.8974    0.0000 C   0  0
   29.8281   -9.2297    0.0000 C   0  0
   28.3870   -9.2368    0.0000 C   0  0
   29.1086   -9.6489    0.0000 C   0  0
   29.8294   -8.3947    0.0000 C   0  0
   29.0980   -7.9846    0.0000 C   0  0
   28.3793   -8.4103    0.0000 C   0  0
   27.6607   -8.0052    0.0000 C   0  0
   27.6523   -7.1804    0.0000 F   0  0
   26.9506   -8.4249    0.0000 F   0  0
   26.9400   -7.5917    0.0000 F   0  0
   30.5429   -9.6412    0.0000 Cl  0  0
   24.8287  -10.4826    0.0000 C   0  0
   24.8280   -9.6603    0.0000 C   0  0
   24.1121   -9.2519    0.0000 C   0  0
   23.3990   -9.6683    0.0000 N   0  0
   23.4062  -10.4974    0.0000 C   0  0
   24.1226  -10.9022    0.0000 C   0  0
   22.6956  -10.9163    0.0000 N   0  0
   21.9820  -10.5093    0.0000 C   0  0
   21.2735  -10.9247    0.0000 C   0  0
   21.2767  -11.7500    0.0000 N   0  0
   21.9946  -12.1582    0.0000 C   0  0
   22.7094  -11.7411    0.0000 C   0  0
   27.6862  -12.1275    0.0000 N   0  0
 16 12  1  0
  9 12  1  0
 16 17  1  0
  1  2  1  0
 17 18  1  0
  2  3  2  0
 17 19  1  0
  3  6  1  0
 17 20  1  0
  5  4  1  0
 11 21  1  0
  4  1  2  0
  1 22  1  0
  5  6  2  0
 22 23  2  0
  5  8  1  0
 23 24  1  0
 24 25  2  0
 25 26  1  0
  7 10  1  0
 26 27  2  0
 27 22  1  0
 10  8  1  0
 26 28  1  0
 28 29  1  0
  8  9  1  0
 12 13  2  0
 13 11  1  0
 11 14  2  0
 14 15  1  0
 28 33  1  0
 29 30  1  0
 30 31  1  0
 31 32  1  0
 32 33  1  0
 15 16  2  0
  6 34  1  0
 34  7  1  0
M  END
> <chembl_id>
CHEMBL1163566

$$$$

  Mrv0541 04051115152D          

 24 28  0  0  0  0            999 V2000
    2.0359    1.8563    0.0000 C   0  0  0  0  0  0  0  0  0  0  0  0
    2.1221    2.6767    0.0000 C   0  0  0  0  0  0  0  0  0  0  0  0
    1.3685    3.0123    0.0000 C   0  0  0  0  0  0  0  0  0  0  0  0
    0.8164    2.3992    0.0000 C   0  0  0  0  0  0  0  0  0  0  0  0
    1.2289    1.6847    0.0000 C   0  0  0  0  0  0  0  0  0  0  0  0
    0.8934    0.9311    0.0000 N   0  0  0  0  0  0  0  0  0  0  0  0
    0.0864    0.7595    0.0000 N   0  0  0  0  0  0  0  0  0  0  0  0
    1.3059    0.2166    0.0000 C   0  0  0  0  0  0  0  0  0  0  0  0
    2.1128    0.0451    0.0000 N   0  0  0  0  0  0  0  0  0  0  0  0
    2.3678   -0.7396    0.0000 C   0  0  0  0  0  0  0  0  0  0  0  0
    1.8157   -1.3527    0.0000 N   0  0  0  0  0  0  0  0  0  0  0  0
    1.0088   -1.1811    0.0000 C   0  0  0  0  0  0  0  0  0  0  0  0
    0.4567   -1.7942    0.0000 N   0  0  0  0  0  0  0  0  0  0  0  0
    0.7538   -0.3965    0.0000 C   0  0  0  0  0  0  0  0  0  0  0  0
    0.0002   -0.0609    0.0000 C   0  0  0  0  0  0  0  0  0  0  0  0
   -0.7143   -0.4734    0.0000 C   0  0  0  0  0  0  0  0  0  0  0  0
   -1.4288   -0.0609    0.0000 C   0  0  0  0  0  0  0  0  0  0  0  0
   -2.1433   -0.4734    0.0000 C   0  0  0  0  0  0  0  0  0  0  0  0
   -2.9279   -0.2185    0.0000 C   0  0  0  0  0  0  0  0  0  0  0  0
   -3.4128   -0.8859    0.0000 C   0  0  0  0  0  0  0  0  0  0  0  0
   -2.9279   -1.5534    0.0000 N   0  0  0  0  0  0  0  0  0  0  0  0
   -2.1433   -1.2984    0.0000 C   0  0  0  0  0  0  0  0  0  0  0  0
   -1.4288   -1.7109    0.0000 N   0  0  0  0  0  0  0  0  0  0  0  0
   -0.7143   -1.2984    0.0000 C   0  0  0  0  0  0  0  0  0  0  0  0
  2  1  1  0  0  0  0
  1  5  1  0  0  0  0
  2  3  1  0  0  0  0
  3  4  1  0  0  0  0
  4  5  1  0  0  0  0
  5  6  1  0  0  0  0
  7  6  1  0  0  0  0
  8  6  1  0  0  0  0
 15  7  2  0  0  0  0
  8  9  2  0  0  0  0
  8 14  1  0  0  0  0
 10  9  1  0  0  0  0
 10 11  2  0  0  0  0
 12 11  1  0  0  0  0
 12 13  1  0  0  0  0
 14 12  2  0  0  0  0
 14 15  1  0  0  0  0
 16 15  1  0  0  0  0
 17 16  2  0  0  0  0
 24 16  1  0  0  0  0
 17 18  1  0  0  0  0
 19 18  1  0  0  0  0
 18 22  2  0  0  0  0
 20 19  2  0  0  0  0
 20 21  1  0  0  0  0
 22 21  1  0  0  0  0
 22 23  1  0  0  0  0
 24 23  2  0  0  0  0
M  END
> <chembl_id>
CHEMBL1081312

$$$$

  SciTegic12211613092D

 40 44  0  0  0  0            999 V2000
   -5.3425    5.2369    0.0000 N   0  0
   -5.2049    3.7560    0.0000 C   0  0  1  0  0  0
   -6.5563    3.1351    0.0000 C   0  0  2  0  0  0
   -7.5599    4.2500    0.0000 O   0  0
   -6.8097    5.5489    0.0000 C   0  0
   -3.9067    3.0027    0.0000 C   0  0
   -2.8664    3.6008    0.0000 O   0  0
   -3.9091    1.5019    0.0000 N   0  0
   -2.6111    0.7486    0.0000 C   0  0
   -2.6111   -0.7486    0.0000 C   0  0
   -1.2964   -1.4973    0.0000 C   0  0
   -1.2964    1.4973    0.0000 C   0  0
    0.0000    0.7486    0.0000 C   0  0
    0.0000   -0.7486    0.0000 C   0  0
    1.2964   -1.4973    0.0000 N   0  0
    2.5929   -0.7486    0.0000 C   0  0
    2.5929    0.7486    0.0000 N   0  0
    1.2964    1.4973    0.0000 C   0  0
   -3.9091   -1.5019    0.0000 O   0  0
    1.2995    2.9981    0.0000 N   0  0
    2.6003    3.7467    0.0000 C   0  0
    2.6056    5.2467    0.0000 C   0  0
    3.9072    5.9922    0.0000 C   0  0
    5.2037    5.2377    0.0000 C   0  0
    5.1985    3.7377    0.0000 C   0  0
    3.8969    2.9922    0.0000 C   0  0
   -7.2976    6.6452    0.0000 O   0  0
   -3.9067   -3.0027    0.0000 C   0  0
   -4.9447   -3.6050    0.0000 C   0  0
    6.2356    3.1342    0.0000 Cl  0  0
    6.5045    5.9863    0.0000 O   0  0
    6.5075    7.4872    0.0000 C   0  0
    7.8083    8.2357    0.0000 C   0  0
    7.8136    9.7358    0.0000 C   0  0
    9.1152   10.4813    0.0000 C   0  0
   10.4116    9.7268    0.0000 C   0  0
   10.4065    8.2268    0.0000 C   0  0
    9.1049    7.4813    0.0000 C   0  0
    9.1193   11.6813    0.0000 F   0  0
   -6.7990    1.9599    0.0000 C   0  0
  1  2  1  0
  2  3  1  0
  3  4  1  0
  4  5  1  0
  5  1  1  0
  2  6  1  6
  6  7  2  0
  6  8  1  0
  8  9  1  0
  9 10  2  0
 10 11  1  0
 11 14  2  0
 13 12  2  0
 12  9  1  0
 13 14  1  0
 14 15  1  0
 15 16  2  0
 16 17  1  0
 17 18  2  0
 18 13  1  0
 10 19  1  0
 18 20  1  0
 20 21  1  0
 21 22  2  0
 22 23  1  0
 23 24  2  0
 24 25  1  0
 25 26  2  0
 26 21  1  0
  5 27  2  0
 19 28  1  0
 28 29  1  0
 25 30  1  0
 24 31  1  0
 31 32  1  0
 32 33  1  0
 33 34  2  0
 34 35  1  0
 35 36  2  0
 36 37  1  0
 37 38  2  0
 38 33  1  0
 35 39  1  0
  3 40  1  1
M  END
> <chembl_id>
CHEMBL3819553

$$$$

  SciTegic01161211252D

 36 41  0  0  0  0            999 V2000
   -0.2585   -1.8675    0.0000 C   0  0
   -0.2597   -2.6955    0.0000 C   0  0
    0.4557   -3.1087    0.0000 C   0  0
    1.1728   -2.6951    0.0000 C   0  0
    1.1699   -1.8638    0.0000 C   0  0
    0.4539   -1.4543    0.0000 C   0  0
    1.8890   -3.1043    0.0000 C   0  0
    1.9762   -3.9259    0.0000 C   0  0
    2.6427   -2.7674    0.0000 N   0  0
    3.1963   -3.3800    0.0000 C   0  0
    2.7868   -4.0950    0.0000 N   0  0
    3.3402   -4.7055    0.0000 C   0  0
    4.0919   -4.3679    0.0000 C   0  0
    4.0028   -3.5487    0.0000 S   0  0
    1.2678   -4.3477    0.0000 C   0  0
    0.5473   -3.9421    0.0000 C   0  0
   -0.1622   -4.3631    0.0000 C   0  0
    1.2794   -5.1699    0.0000 N   0  0
    0.5730   -5.5933    0.0000 C   0  0
   -0.1561   -5.1904    0.0000 N   0  0
    0.5875   -6.4189    0.0000 N   0  0
   -0.1203   -6.8442    0.0000 C   0  0
   -0.8377   -6.4414    0.0000 C   0  0
   -1.5449   -6.8660    0.0000 C   0  0
   -1.5309   -7.6925    0.0000 C   0  0
   -0.8037   -8.0925    0.0000 C   0  0
   -0.0993   -7.6655    0.0000 C   0  0
    0.4515   -0.6665    0.0000 N   0  0
   -0.2748   -0.2737    0.0000 C   0  0
   -0.2977    0.5517    0.0000 C   0  0
   -0.9781   -0.7063    0.0000 O   0  0
    0.4079    0.9814    0.0000 C   0  0
    0.3854    1.8061    0.0000 C   0  0
   -0.3413    2.1998    0.0000 C   0  0
   -1.0469    1.7627    0.0000 C   0  0
   -1.0209    0.9396    0.0000 C   0  0
  4  7  1  0
 10 11  1  0
  4  5  1  0
  2  3  1  0
  5  6  2  0
  6  1  1  0
  7  8  2  0
 11 12  1  0
 12 13  2  0
 13 14  1  0
 19 21  1  0
 14 10  1  0
 21 22  1  0
  1  2  2  0
 22 23  2  0
  3  4  2  0
 23 24  1  0
 15 16  2  0
 24 25  2  0
 25 26  1  0
 16 17  1  0
 26 27  2  0
 27 22  1  0
  6 28  1  0
 17 20  2  0
  8 11  1  0
 19 18  2  0
 18 15  1  0
  8 15  1  0
 19 20  1  0
 10  9  2  0
  9  7  1  0
 28 29  1  0
 29 30  1  0
 29 31  2  0
 30 32  2  0
 32 33  1  0
 33 34  2  0
 34 35  1  0
 35 36  2  0
 36 30  1  0
M  END
> <chembl_id>
CHEMBL1093234

$$$$

  SciTegic04201614442D

 45 50  0  0  0  0            999 V2000
   -2.6111    0.7486    0.0000 N   0  0
   -2.6111   -0.7486    0.0000 C   0  0
   -1.2964   -1.4973    0.0000 N   0  0
   -1.2964    1.4973    0.0000 C   0  0
    0.0000    0.7486    0.0000 C   0  0
    0.0000   -0.7486    0.0000 C   0  0
    1.2964   -1.4973    0.0000 N   0  0
    1.2964    1.4973    0.0000 C   0  0
    2.5929    0.7486    0.0000 C   0  0
    2.5929   -0.7486    0.0000 C   0  0
    1.2964   -2.9980    0.0000 C   0  0
   -0.0014   -3.7503    0.0000 C   0  0
    0.0011   -5.2503    0.0000 C   0  0
    1.3014   -5.9981    0.0000 C   0  0
    2.5992   -5.2460    0.0000 C   0  0
    2.5967   -3.7460    0.0000 C   0  0
    3.9017   -5.9916    0.0000 N   0  0
    5.1991   -5.2372    0.0000 C   0  0
    6.5017   -5.9828    0.0000 C   0  0
    5.1951   -4.0372    0.0000 O   0  0
    7.5390   -5.3796    0.0000 C   0  0
   -3.9091   -1.5019    0.0000 N   0  0
   -3.9067   -3.0027    0.0000 C   0  0
   -5.2030   -3.7575    0.0000 C   0  0
   -5.1976   -5.2575    0.0000 C   0  0
   -3.8958   -6.0028    0.0000 C   0  0
   -2.5995   -5.2481    0.0000 C   0  0
   -2.6050   -3.7481    0.0000 C   0  0
   -3.8904   -7.5035    0.0000 N   0  0
   -5.1855   -8.2604    0.0000 C   0  0
   -5.1777   -9.7604    0.0000 C   0  0
   -3.8747  -10.5036    0.0000 N   0  0
   -2.5796   -9.7469    0.0000 C   0  0
   -2.5874   -8.2469    0.0000 C   0  0
   -6.5071   -3.0146    0.0000 O   0  0
   -7.5432   -3.6199    0.0000 C   0  0
    3.6321   -1.3486    0.0000 O   0  0
    3.8911    1.5017    0.0000 C   0  0
    3.8890    3.0026    0.0000 C   0  0
    5.1854    3.7571    0.0000 C   0  0
    5.1802    5.2571    0.0000 C   0  0
    3.8786    6.0026    0.0000 C   0  0
    2.5821    5.2482    0.0000 C   0  0
    2.5873    3.7482    0.0000 C   0  0
   -3.8685  -11.7036    0.0000 C   0  0
  1  2  2  0
  2  3  1  0
  3  6  2  0
  5  4  2  0
  4  1  1  0
  5  6  1  0
  5  8  1  0
  6  7  1  0
  7 10  1  0
  9  8  2  0
  9 10  1  0
 11 12  2  0
 12 13  1  0
 13 14  2  0
 14 15  1  0
 15 16  2  0
 16 11  1  0
  7 11  1  0
 15 17  1  0
 17 18  1  0
 18 19  1  0
 18 20  2  0
 19 21  2  0
  2 22  1  0
 22 23  1  0
 23 24  2  0
 24 25  1  0
 25 26  2  0
 26 27  1  0
 27 28  2  0
 28 23  1  0
 29 30  1  0
 29 34  1  0
 30 31  1  0
 31 32  1  0
 32 33  1  0
 33 34  1  0
 26 29  1  0
 35 36  1  0
 24 35  1  0
 10 37  2  0
  9 38  1  0
 38 39  1  0
 39 40  2  0
 40 41  1  0
 41 42  2  0
 42 43  1  0
 43 44  2  0
 44 39  1  0
 32 45  1  0
M  END
> <chembl_id>
CHEMBL3633145

$$$$

  Mrv0541 04051115152D          

 27 30  0  0  0  0            999 V2000
   -2.8676   -0.5926    0.0000 C   0  0  0  0  0  0  0  0  0  0  0  0
   -3.5821   -1.0051    0.0000 C   0  0  0  0  0  0  0  0  0  0  0  0
   -3.5821   -1.8301    0.0000 C   0  0  0  0  0  0  0  0  0  0  0  0
   -2.8676   -2.2426    0.0000 C   0  0  0  0  0  0  0  0  0  0  0  0
   -2.1531   -1.8301    0.0000 C   0  0  0  0  0  0  0  0  0  0  0  0
   -2.1531   -1.0051    0.0000 C   0  0  0  0  0  0  0  0  0  0  0  0
   -1.4387   -0.5926    0.0000 C   0  0  0  0  0  0  0  0  0  0  0  0
   -1.4387    0.2324    0.0000 N   0  0  0  0  0  0  0  0  0  0  0  0
   -0.7242   -1.0051    0.0000 N   0  0  0  0  0  0  0  0  0  0  0  0
   -0.0097   -0.5926    0.0000 C   0  0  0  0  0  0  0  0  0  0  0  0
    0.7048   -1.0051    0.0000 C   0  0  0  0  0  0  0  0  0  0  0  0
    1.4192   -0.5926    0.0000 C   0  0  0  0  0  0  0  0  0  0  0  0
    2.1337   -1.0051    0.0000 N   0  0  0  0  0  0  0  0  0  0  0  0
    2.8482   -0.5926    0.0000 C   0  0  0  0  0  0  0  0  0  0  0  0
    2.8482    0.2324    0.0000 O   0  0  0  0  0  0  0  0  0  0  0  0
    3.5626   -1.0051    0.0000 C   0  0  0  0  0  0  0  0  0  0  0  0
    4.2771   -0.5926    0.0000 C   0  0  0  0  0  0  0  0  0  0  0  0
    1.4192    0.2324    0.0000 C   0  0  0  0  0  0  0  0  0  0  0  0
    0.7048    0.6449    0.0000 C   0  0  0  0  0  0  0  0  0  0  0  0
   -0.0097    0.2324    0.0000 C   0  0  0  0  0  0  0  0  0  0  0  0
   -0.7242    0.6449    0.0000 C   0  0  0  0  0  0  0  0  0  0  0  0
   -0.7242    1.4699    0.0000 N   0  0  0  0  0  0  0  0  0  0  0  0
   -0.0097    1.8824    0.0000 C   0  0  0  0  0  0  0  0  0  0  0  0
    0.7440    1.5469    0.0000 C   0  0  0  0  0  0  0  0  0  0  0  0
    1.2960    2.1600    0.0000 C   0  0  0  0  0  0  0  0  0  0  0  0
    0.8835    2.8744    0.0000 N   0  0  0  0  0  0  0  0  0  0  0  0
    0.0765    2.7029    0.0000 N   0  0  0  0  0  0  0  0  0  0  0  0
  2  1  2  0  0  0  0
  1  6  1  0  0  0  0
  3  2  1  0  0  0  0
  3  4  2  0  0  0  0
  4  5  1  0  0  0  0
  5  6  2  0  0  0  0
  7  6  1  0  0  0  0
  7  8  2  0  0  0  0
  7  9  1  0  0  0  0
 21  8  1  0  0  0  0
 10  9  2  0  0  0  0
 10 20  1  0  0  0  0
 10 11  1  0  0  0  0
 11 12  2  0  0  0  0
 18 12  1  0  0  0  0
 12 13  1  0  0  0  0
 14 13  1  0  0  0  0
 14 15  2  0  0  0  0
 16 14  1  0  0  0  0
 17 16  2  0  0  0  0
 18 19  2  0  0  0  0
 20 19  1  0  0  0  0
 20 21  2  0  0  0  0
 21 22  1  0  0  0  0
 23 22  1  0  0  0  0
 23 27  2  0  0  0  0
 24 23  1  0  0  0  0
 25 24  2  0  0  0  0
 25 26  1  0  0  0  0
 27 26  1  0  0  0  0
M  END
> <chembl_id>
CHEMBL1232944

$$$$

  SciTegic09081514162D

 38 42  0  0  0  0            999 V2000
    1.2990   -0.7500    0.0000 N   0  0
    1.2990    0.7500    0.0000 C   0  0
    0.0000    1.5000    0.0000 N   0  0
   -1.2990    0.7500    0.0000 C   0  0
   -1.2990   -0.7500    0.0000 C   0  0
    0.0000   -1.5000    0.0000 C   0  0
   -2.5973    1.5031    0.0000 O   0  0
    2.5972    1.5031    0.0000 N   0  0
    2.5951    3.0039    0.0000 C   0  0
   -3.8990    0.7562    0.0000 C   0  0
   -5.1976    1.5069    0.0000 C   0  0
   -6.4972    0.7578    0.0000 C   0  0
   -6.4981   -0.7422    0.0000 C   0  0
   -5.1996   -1.4931    0.0000 C   0  0
   -3.9001   -0.7439    0.0000 C   0  0
    3.8915    3.7585    0.0000 C   0  0
    3.8863    5.2585    0.0000 C   0  0
    2.5847    6.0040    0.0000 C   0  0
    1.2883    5.2495    0.0000 C   0  0
    1.2934    3.7495    0.0000 C   0  0
    2.5795    7.5047    0.0000 N   0  0
    3.8747    8.2614    0.0000 C   0  0
    3.8671    9.7614    0.0000 C   0  0
    2.5643   10.5048    0.0000 N   0  0
    1.2691    9.7483    0.0000 C   0  0
    1.2767    8.2483    0.0000 C   0  0
   -2.3383   -1.3500    0.0000 Cl  0  0
   -5.1975   -2.9939    0.0000 N   0  0
   -3.8972   -3.7433    0.0000 C   0  0
   -3.8950   -5.2441    0.0000 C   0  0
   -2.8586   -3.1422    0.0000 O   0  0
    2.5583   11.7048    0.0000 C   0  0
    5.1954    3.0153    0.0000 O   0  0
    6.2317    3.6204    0.0000 C   0  0
   -2.5947   -5.9935    0.0000 C   0  0
   -2.5926   -7.4944    0.0000 C   0  0
   -1.8435   -8.7025    0.0000 C   0  0
   -3.3435   -8.7014    0.0000 C   0  0
  1  2  2  0
  2  3  1  0
  3  4  2  0
  4  5  1  0
  5  6  2  0
  6  1  1  0
  4  7  1  0
  2  8  1  0
  8  9  1  0
  7 10  1  0
 10 11  2  0
 11 12  1  0
 12 13  2  0
 13 14  1  0
 14 15  2  0
 15 10  1  0
  9 16  2  0
 16 17  1  0
 17 18  2  0
 18 19  1  0
 19 20  2  0
 20  9  1  0
 21 22  1  0
 22 23  1  0
 23 24  1  0
 24 25  1  0
 25 26  1  0
 26 21  1  0
 18 21  1  0
  5 27  1  0
 14 28  1  0
 28 29  1  0
 29 30  1  0
 29 31  2  0
 24 32  1  0
 16 33  1  0
 33 34  1  0
 30 35  1  0
 35 36  1  0
 37 36  1  0
 38 37  1  0
 36 38  1  0
M  END
> <chembl_id>
CHEMBL3425673

$$$$

  SciTegic01161211212D

 37 41  0  0  0  0            999 V2000
    1.9019  -16.9841    0.0000 C   0  0
    1.9038  -17.8160    0.0000 C   0  0
    2.6126  -18.2183    0.0000 N   0  0
    2.6088  -16.5677    0.0000 C   0  0
    3.3252  -16.9735    0.0000 C   0  0
    3.3292  -17.8068    0.0000 C   0  0
    4.7529  -17.8000    0.0000 C   0  0
    4.0286  -16.5666    0.0000 N   0  0
    4.0286  -15.7416    0.0000 C   0  0
    4.7601  -16.9902    0.0000 C   0  0
    6.1850  -15.3223    0.0000 C   0  0
    4.7439  -15.3295    0.0000 C   0  0
    5.4654  -15.7416    0.0000 C   0  0
    6.1864  -14.4874    0.0000 C   0  0
    5.4549  -14.0772    0.0000 C   0  0
    4.7361  -14.5030    0.0000 C   0  0
    4.0175  -14.0978    0.0000 C   0  0
    4.0090  -13.2728    0.0000 F   0  0
    3.3073  -14.5176    0.0000 F   0  0
    3.2967  -13.6843    0.0000 F   0  0
    6.9000  -15.7340    0.0000 Cl  0  0
    1.1852  -16.5755    0.0000 C   0  0
    1.1845  -15.7531    0.0000 C   0  0
    0.4686  -15.3446    0.0000 C   0  0
   -0.2446  -15.7610    0.0000 N   0  0
   -0.2374  -16.5903    0.0000 C   0  0
    0.4790  -16.9950    0.0000 C   0  0
   -0.9481  -17.0092    0.0000 N   0  0
   -1.6617  -16.6022    0.0000 C   0  0
   -2.3703  -17.0176    0.0000 C   0  0
   -2.3672  -17.8430    0.0000 N   0  0
   -1.6491  -18.2512    0.0000 C   0  0
   -0.9343  -17.8341    0.0000 C   0  0
   -3.0795  -18.2592    0.0000 C   0  0
   -3.7961  -17.8504    0.0000 C   0  0
   -3.0752  -19.0842    0.0000 O   0  0
    4.0430  -18.2204    0.0000 N   0  0
 16 17  1  0
  1  2  1  0
 17 18  1  0
  2  3  2  0
 17 19  1  0
  3  6  1  0
 17 20  1  0
  5  4  1  0
 11 21  1  0
  4  1  2  0
  1 22  1  0
  5  6  2  0
 22 23  2  0
  5  8  1  0
 23 24  1  0
 24 25  2  0
 25 26  1  0
  7 10  1  0
 26 27  2  0
 27 22  1  0
 10  8  1  0
 26 28  1  0
 28 29  1  0
  8  9  1  0
 12 13  2  0
 13 11  1  0
 11 14  2  0
 14 15  1  0
 28 33  1  0
 29 30  1  0
 30 31  1  0
 31 32  1  0
 32 33  1  0
 15 16  2  0
 31 34  1  0
 16 12  1  0
 34 35  1  0
  9 12  1  0
 34 36  2  0
  6 37  1  0
 37  7  1  0
M  END
> <chembl_id>
CHEMBL1163565

$$$$

  SciTegic09261414462D

 29 31  0  0  0  0            999 V2000
   29.4310   -9.9906    0.0000 N   0  0
   30.1407   -9.5811    0.0000 C   0  0
   30.1378   -8.7585    0.0000 N   0  0
   29.4292   -8.3532    0.0000 C   0  0
   28.7229   -9.5816    0.0000 C   0  0
   28.7242   -8.7651    0.0000 C   0  0
   27.9480   -8.5116    0.0000 C   0  0
   27.4670   -9.1715    0.0000 C   0  0
   27.9460   -9.8327    0.0000 S   0  0
   29.4254   -7.5360    0.0000 N   0  0
   30.1313   -7.1242    0.0000 C   0  0
   30.8387   -7.5343    0.0000 C   0  0
   31.5440   -7.1231    0.0000 C   0  0
   31.5407   -6.3051    0.0000 C   0  0
   30.8261   -5.8999    0.0000 C   0  0
   30.1237   -6.3134    0.0000 C   0  0
   26.6498   -9.1703    0.0000 N   0  0
   26.2422   -8.4620    0.0000 C   0  0
   25.4250   -8.4608    0.0000 C   0  0
   26.6518   -7.7549    0.0000 O   0  0
   32.2460   -5.8923    0.0000 F   0  0
   32.2534   -7.5288    0.0000 Cl  0  0
   25.0175   -7.7525    0.0000 C   0  0
   24.2003   -7.7513    0.0000 C   0  0
   23.7927   -7.0430    0.0000 N   0  0
   22.9755   -7.0418    0.0000 C   0  0
   22.5680   -6.3335    0.0000 C   0  0
   22.9776   -5.6264    0.0000 O   0  0
   22.5700   -4.9181    0.0000 C   0  0
  5  1  1  0
  1  2  2  0
  2  3  1  0
  3  4  2  0
  4  6  1  0
  5  6  2  0
  6  7  1  0
  7  8  2  0
  8  9  1  0
  9  5  1  0
  4 10  1  0
 10 11  1  0
 11 12  2  0
 12 13  1  0
 13 14  2  0
 14 15  1  0
 15 16  2  0
 16 11  1  0
  8 17  1  0
 17 18  1  0
 18 19  1  0
 18 20  2  0
 14 21  1  0
 13 22  1  0
 19 23  2  0
 23 24  1  0
 24 25  1  0
 25 26  1  0
 26 27  1  0
 27 28  1  0
 28 29  1  0
M  END
> <chembl_id>
CHEMBL3233771

$$$$

  SciTegic03291108482D

 23 25  0  0  0  0            999 V2000
    0.2280   -0.3021    0.0000 Cl  0  0
   -1.1539   -4.4995    0.0000 O   0  0
   -2.6299    2.9979    0.0000 O   0  0
   -1.9154   -1.5396    0.0000 N   0  0
   -1.2010   -0.3021    0.0000 N   0  0
   -0.4865   -1.5396    0.0000 N   0  0
   -2.6299   -0.3021    0.0000 N   0  0
   -1.2010   -2.7771    0.0000 N   0  0
   -1.9154   -0.7146    0.0000 C   0  0
   -1.2010   -1.9521    0.0000 C   0  0
   -0.4865   -0.7146    0.0000 C   0  0
   -2.6299    0.5229    0.0000 C   0  0
   -0.4865   -4.0146    0.0000 C   0  0
   -0.4865   -3.1896    0.0000 C   0  0
   -3.3444    0.9354    0.0000 C   0  0
   -1.9154    0.9354    0.0000 C   0  0
   -2.6299    2.1729    0.0000 C   0  0
   -3.3444    1.7604    0.0000 C   0  0
   -1.9154    1.7604    0.0000 C   0  0
    0.1809   -4.4995    0.0000 C   0  0
   -0.8990   -5.2841    0.0000 C   0  0
   -0.0740   -5.2841    0.0000 C   0  0
   -3.3444    3.4104    0.0000 C   0  0
  1 11  1  0
  2 13  1  0
  2 21  1  0
  3 17  1  0
  3 23  1  0
  4  9  1  0
  4 10  2  0
  5  9  2  0
  5 11  1  0
  6 10  1  0
  6 11  2  0
  7  9  1  0
  7 12  1  0
  8 10  1  0
  8 14  1  0
 12 15  2  0
 12 16  1  0
 13 14  1  0
 13 20  2  0
 15 18  1  0
 16 19  2  0
 17 18  2  0
 17 19  1  0
 20 22  1  0
 21 22  2  0
M  END
> <chembl_id>
CHEMBL1348499

$$$$

  SciTegic12091611202D

 29 32  0  0  0  0            999 V2000
   -4.9282   -3.7385    0.0000 C   0  0
    1.5604   -6.0143    0.0000 C   0  0  1  0  0  0
   -2.3155    0.7475    0.0000 N   0  0
   -2.3155   -0.7475    0.0000 C   0  0
    1.7138    1.2033    0.0000 N   0  0
   -1.0028    1.5132    0.0000 C   0  0
    1.7138   -1.2033    0.0000 N   0  0
   -2.3350   -5.2470    0.0000 C   0  0
   -1.0449   -7.5017    0.0000 C   0  0
   -3.6187   -1.4919    0.0000 N   0  0
    2.5894   -8.1193    0.0000 O   0  0
    1.5531   -7.5143    0.0000 C   0  0  1  0  0  0
    0.2917   -0.7475    0.0000 C   0  0
    2.5889    0.0182    0.0000 C   0  0
   -2.3301   -3.7470    0.0000 N   0  0
    0.2650   -5.2580    0.0000 C   0  0
   -3.6267   -2.9927    0.0000 C   0  0
   -4.9331   -5.2385    0.0000 C   0  0
   -1.0028   -1.5132    0.0000 C   0  0
   -3.6365   -5.9928    0.0000 N   0  0
    0.2505   -8.2579    0.0000 C   0  0
    0.2917    0.7475    0.0000 C   0  0
   -1.0378   -6.0016    0.0000 N   0  0
    2.1855   -2.6254    0.0000 C   0  0
    3.3606   -2.8684    0.0000 C   0  0
    1.3877   -3.5218    0.0000 C   0  0
    4.0872    0.0382    0.0000 C   0  0
    2.6025   -5.4193    0.0000 F   0  0
    4.6738    1.0851    0.0000 O   0  0
 12 11  1  1
 16  2  1  0
 23 16  1  0
 10  4  1  0
  4  3  1  0
 13  7  1  0
 17  1  1  0
 14  5  2  0
  2 12  1  0
 15 17  2  0
 22  5  1  0
 14  7  1  0
 21  9  1  0
 10 17  1  0
  6 22  1  0
 22 13  2  0
  6  3  2  0
 13 19  1  0
 18 20  1  0
 19  4  2  0
  8 23  1  0
  1 18  2  0
 23  9  1  0
  8 20  2  0
  8 15  1  0
 12 21  1  0
  7 24  1  0
 24 25  1  0
 24 26  1  0
 14 27  1  0
  2 28  1  1
 27 29  1  0
M  END
> <chembl_id>
CHEMBL3734934

$$$$

  SciTegic12201615542D

 40 45  0  0  0  0            999 V2000
    1.5297   -7.7799    0.0000 C   0  0
    0.6223   -8.9753    0.0000 C   0  0
    2.7202   -7.9307    0.0000 O   0  0
    0.9491   -6.3959    0.0000 N   0  0
    1.8565   -5.2005    0.0000 C   0  0
    1.2781   -3.8165    0.0000 C   0  0
    2.1852   -2.6281    0.0000 C   0  0
    3.6753   -2.8147    0.0000 C   0  0
    4.2537   -4.1987    0.0000 C   0  0
    3.3443   -5.3916    0.0000 C   0  0
    2.5889    0.0182    0.0000 C   0  0
    1.7138   -1.2033    0.0000 N   0  0
    0.2917   -0.7475    0.0000 C   0  0
    0.2917    0.7475    0.0000 C   0  0
    1.7138    1.2033    0.0000 N   0  0
   -1.0028    1.5132    0.0000 C   0  0
   -2.3155    0.7475    0.0000 C   0  0
   -2.3155   -0.7475    0.0000 C   0  0
   -1.0028   -1.5132    0.0000 C   0  0
    4.0896    0.0290    0.0000 C   0  0
    4.9234    1.2700    0.0000 C   0  0
    4.7453   -1.3220    0.0000 N   0  0
    6.4199    1.1671    0.0000 N   0  0
    7.0791   -0.1803    0.0000 C   0  0
    6.2418   -1.4248    0.0000 C   0  0
    7.2286   -5.1568    0.0000 N   0  0
    8.5770   -4.4998    0.0000 N   0  0
    8.3688   -3.0143    0.0000 C   0  0
    6.9013   -2.7729    0.0000 C   0  0
    6.1870   -4.0774    0.0000 C   0  0
    6.2216   -9.5371    0.0000 N   0  0
    7.6659   -9.1322    0.0000 C   0  0
    8.0374   -7.6789    0.0000 C   0  0
    6.9674   -6.6347    0.0000 C   0  0
    5.5202   -7.0355    0.0000 C   0  0
    5.1488   -8.4888    0.0000 C   0  0
    5.9245  -10.6998    0.0000 C   0  0
    4.3957    2.3477    0.0000 N   0  0
    1.0866  -10.0818    0.0000 C   0  0
   -0.2414   -6.2451    0.0000 C   0  0
  1  2  1  0
  1  3  2  0
  1  4  1  0
  5  6  1  0
  6  7  2  0
  7  8  1  0
  8  9  2  0
  9 10  1  0
  5 10  2  0
 11 12  1  0
 12 13  1  0
 13 14  1  0
 14 15  1  0
 11 15  2  0
 16 17  1  0
 17 18  2  0
 18 19  1  0
 13 19  2  0
 14 16  2  0
 20 21  1  0
 20 22  2  0
 21 23  2  0
 23 24  1  0
 24 25  2  0
 22 25  1  0
 26 27  1  0
 27 28  2  0
 28 29  1  0
 29 30  2  0
 26 30  1  0
 31 32  1  0
 32 33  1  0
 33 34  1  0
 34 35  1  0
 35 36  1  0
 31 36  1  0
 31 37  1  0
 26 34  1  0
 25 29  1  0
 21 38  1  0
 11 20  1  0
  7 12  1  0
  4  5  1  0
  2 39  2  0
  4 40  1  0
M  END
> <chembl_id>
CHEMBL3814572

$$$$

  SciTegic12171313052D

 31 34  0  0  0  0            999 V2000
   13.0159   -9.8269    0.0000 C   0  0
   13.0147  -10.6464    0.0000 C   0  0
   13.7228  -11.0554    0.0000 C   0  0
   14.4324  -10.6460    0.0000 C   0  0
   14.4296   -9.8233    0.0000 C   0  0
   13.7210   -9.4180    0.0000 C   0  0
   13.7185   -8.6008    0.0000 N   0  0
   14.4250   -8.1901    0.0000 C   0  0
   15.1354   -8.6010    0.0000 N   0  0
   15.1255   -6.9667    0.0000 C   0  0
   14.4224   -7.3790    0.0000 N   0  0
   15.8394   -7.3730    0.0000 C   0  0
   15.8402   -8.1927    0.0000 C   0  0
   16.5466   -8.5996    0.0000 N   0  0
   17.2567   -8.1913    0.0000 C   0  0
   17.2559   -7.3716    0.0000 C   0  0
   16.5450   -6.9601    0.0000 N   0  0
   16.5477   -9.4141    0.0000 C   0  0
   15.8382   -9.8218    0.0000 C   0  0
   15.8375  -10.6382    0.0000 C   0  0
   16.5456  -11.0480    0.0000 C   0  0
   17.2558  -10.6353    0.0000 C   0  0
   17.2530   -9.8202    0.0000 C   0  0
   17.9642   -8.6002    0.0000 O   0  0
   13.7226  -11.8726    0.0000 O   0  0
   13.0148  -12.2810    0.0000 C   0  0
   17.9648  -11.0417    0.0000 N   0  0
   17.9673  -11.8589    0.0000 C   0  0
   18.6763  -12.2653    0.0000 O   0  0
   17.2609  -12.2697    0.0000 C   0  0
   16.5519  -11.8633    0.0000 C   0  0
  1  2  2  0
  2  3  1  0
  3  4  2  0
  4  5  1  0
  5  6  2  0
  6  1  1  0
  6  7  1  0
  7  8  1  0
  8  9  2  0
  9 13  1  0
 12 10  1  0
 10 11  2  0
 11  8  1  0
 12 13  2  0
 12 17  1  0
 13 14  1  0
 14 15  1  0
 15 16  1  0
 16 17  2  0
 18 19  2  0
 19 20  1  0
 20 21  2  0
 21 22  1  0
 22 23  2  0
 23 18  1  0
 14 18  1  0
 15 24  2  0
  3 25  1  0
 25 26  1  0
 22 27  1  0
 27 28  1  0
 28 29  2  0
 28 30  1  0
 30 31  1  0
M  END
> <chembl_id>
CHEMBL2437481

$$$$

  SciTegic12121614122D

 50 56  0  0  0  0            999 V2000
   -1.2913    7.5063    0.0000 C   0  0
   -2.5882    8.2616    0.0000 C   0  0
   -2.5845    9.4615    0.0000 C   0  0
   -0.2500    8.1028    0.0000 O   0  0
   -1.2959    6.0055    0.0000 N   0  0
    0.0011    5.2503    0.0000 C   0  0
   -0.0014    3.7503    0.0000 C   0  0
    1.2964    2.9980    0.0000 C   0  0
    2.5967    3.7460    0.0000 C   0  0
    2.5992    5.2460    0.0000 C   0  0
    1.3014    5.9981    0.0000 C   0  0
   -2.6111    0.7486    0.0000 C   0  0
   -1.2964    1.4973    0.0000 N   0  0
    0.0000    0.7486    0.0000 C   0  0
    0.0000   -0.7486    0.0000 C   0  0
   -1.2964   -1.4973    0.0000 C   0  0
   -2.6111   -0.7486    0.0000 N   0  0
    1.2964   -1.4973    0.0000 C   0  0
    2.5929   -0.7486    0.0000 C   0  0
    2.5929    0.7486    0.0000 C   0  0
    1.2964    1.4973    0.0000 N   0  0
    3.6321    1.3486    0.0000 O   0  0
   -3.9122    1.4966    0.0000 N   0  0
   -5.2109    0.7445    0.0000 C   0  0
   -6.5125    1.4901    0.0000 C   0  0
   -7.8091    0.7359    0.0000 C   0  0
   -7.8042   -0.7641    0.0000 C   0  0
   -6.5027   -1.5098    0.0000 C   0  0
   -5.2061   -0.7556    0.0000 C   0  0
   -9.1014   -1.5188    0.0000 N   0  0
  -10.4041   -0.7752    0.0000 C   0  0
  -11.6995   -1.5315    0.0000 C   0  0
  -11.6922   -3.0315    0.0000 N   0  0
  -10.3895   -3.7751    0.0000 C   0  0
   -9.0942   -3.0188    0.0000 C   0  0
  -12.7285   -3.6365    0.0000 C   0  0
   -6.5206    2.9910    0.0000 O   0  0
   -7.5627    3.5860    0.0000 C   0  0
    1.3014   -5.9981    0.0000 C   0  0
    0.0011   -5.2503    0.0000 C   0  0
   -0.0014   -3.7503    0.0000 C   0  0
    1.2964   -2.9980    0.0000 C   0  0
    2.5967   -3.7460    0.0000 C   0  0
    2.5992   -5.2460    0.0000 C   0  0
    1.3038   -7.4989    0.0000 C   0  0
    0.0072   -8.2532    0.0000 C   0  0
    0.0121   -9.7532    0.0000 C   0  0
    1.3135  -10.4990    0.0000 C   0  0
    2.6101   -9.7448    0.0000 C   0  0
    2.6053   -8.2448    0.0000 C   0  0
  1  2  1  0
  2  3  2  0
  1  4  2  0
  1  5  1  0
  6  7  1  0
  7  8  2  0
  8  9  1  0
  9 10  2  0
 10 11  1  0
  6 11  2  0
 12 13  1  0
 13 14  2  0
 14 15  1  0
 15 16  2  0
 16 17  1  0
 12 17  2  0
 18 19  2  0
 19 20  1  0
 20 21  1  0
 14 21  1  0
 15 18  1  0
 20 22  2  0
 24 25  1  0
 25 26  2  0
 26 27  1  0
 27 28  2  0
 28 29  1  0
 24 29  2  0
 30 31  1  0
 31 32  1  0
 32 33  1  0
 33 34  1  0
 34 35  1  0
 30 35  1  0
 33 36  1  0
 27 30  1  0
 37 38  1  0
 25 37  1  0
 23 24  1  0
 12 23  1  0
 39 40  1  0
 40 41  2  0
 41 42  1  0
 42 43  2  0
 43 44  1  0
 39 44  2  0
 45 46  1  0
 46 47  2  0
 47 48  1  0
 48 49  2  0
 49 50  1  0
 45 50  2  0
 39 45  1  0
 18 42  1  0
  8 21  1  0
  5  6  1  0
M  END
> <chembl_id>
CHEMBL3752337

$$$$

  SciTegic12171313052D

 32 35  0  0  0  0            999 V2000
   16.8047   -4.3542    0.0000 C   0  0
   16.8035   -5.1737    0.0000 C   0  0
   17.5116   -5.5827    0.0000 C   0  0
   18.2212   -5.1733    0.0000 C   0  0
   18.2184   -4.3506    0.0000 C   0  0
   17.5098   -3.9453    0.0000 C   0  0
   17.5073   -3.1281    0.0000 N   0  0
   18.2138   -2.7174    0.0000 C   0  0
   18.9242   -3.1283    0.0000 N   0  0
   18.9143   -1.4939    0.0000 C   0  0
   18.2112   -1.9063    0.0000 N   0  0
   19.6282   -1.9003    0.0000 C   0  0
   19.6290   -2.7200    0.0000 C   0  0
   20.3354   -3.1269    0.0000 N   0  0
   21.0455   -2.7186    0.0000 C   0  0
   21.0447   -1.8989    0.0000 C   0  0
   20.3338   -1.4874    0.0000 N   0  0
   20.3365   -3.9414    0.0000 C   0  0
   19.6270   -4.3491    0.0000 C   0  0
   19.6263   -5.1655    0.0000 C   0  0
   20.3344   -5.5753    0.0000 C   0  0
   21.0446   -5.1626    0.0000 C   0  0
   21.0418   -4.3475    0.0000 C   0  0
   21.7530   -3.1275    0.0000 O   0  0
   21.7536   -5.5690    0.0000 N   0  0
   21.7561   -6.3862    0.0000 C   0  0
   22.4651   -6.7926    0.0000 O   0  0
   21.0497   -6.7969    0.0000 C   0  0
   20.3407   -6.3905    0.0000 C   0  0
   17.5114   -6.3999    0.0000 O   0  0
   16.8036   -6.8083    0.0000 C   0  0
   21.7525   -1.4903    0.0000 C   0  0
  1  2  2  0
  2  3  1  0
  3  4  2  0
  4  5  1  0
  5  6  2  0
  6  1  1  0
  6  7  1  0
  7  8  1  0
  8  9  2  0
  9 13  1  0
 12 10  1  0
 10 11  2  0
 11  8  1  0
 12 13  2  0
 12 17  1  0
 13 14  1  0
 14 15  1  0
 15 16  1  0
 16 17  2  0
 18 19  2  0
 19 20  1  0
 20 21  2  0
 21 22  1  0
 22 23  2  0
 23 18  1  0
 14 18  1  0
 15 24  2  0
 22 25  1  0
 25 26  1  0
 26 27  2  0
 26 28  1  0
 28 29  2  0
  3 30  1  0
 30 31  1  0
 16 32  1  0
M  END
> <chembl_id>
CHEMBL2437471

$$$$

  SciTegic12161611592D

 30 34  0  0  0  0            999 V2000
    4.1295   -4.3524    0.0000 C   0  0
    3.6552   -2.9294    0.0000 C   0  0
    4.6506   -1.8071    0.0000 C   0  0
    6.1201   -2.1080    0.0000 C   0  0
    6.5944   -3.5310    0.0000 C   0  0
    8.0646   -3.8320    0.0000 C   0  0
    9.1520   -2.8173    0.0000 C   0  0
   10.4554   -3.5596    0.0000 N   0  0
   10.1523   -5.0286    0.0000 N   0  0
    8.6615   -5.1943    0.0000 C   0  0
   11.5488   -3.0650    0.0000 C   0  0
    5.5991   -4.6533    0.0000 C   0  0
    2.1855   -2.6254    0.0000 C   0  0
    1.7138   -1.2033    0.0000 C   0  0
    0.2917   -0.7475    0.0000 C   0  0
    0.2917    0.7475    0.0000 C   0  0
   -1.0028    1.5132    0.0000 C   0  0
   -2.3155    0.7475    0.0000 C   0  0
   -2.3155   -0.7475    0.0000 C   0  0
   -1.0028   -1.5132    0.0000 C   0  0
   -3.6187   -1.4919    0.0000 C   0  0
    1.7138    1.2033    0.0000 N   0  0
    2.5889    0.0182    0.0000 N   0  0
   -4.6549   -0.8867    0.0000 O   0  0
   -3.6267   -2.9927    0.0000 N   0  0
   -4.8430   -3.8486    0.0000 C   0  0
   -4.3841   -5.2767    0.0000 C   0  0  1  0  0  0
   -2.8841   -5.2815    0.0000 C   0  0
   -2.4160   -3.8564    0.0000 C   0  0
   -5.0926   -6.2452    0.0000 O   0  0
  1  2  2  0
  2  3  1  0
  3  4  2  0
  4  5  1  0
  5  6  1  0
  6  7  2  0
  7  8  1  0
  8  9  1  0
  9 10  2  0
 10  6  1  0
  8 11  1  0
  5 12  2  0
 12  1  1  0
 13  2  1  0
 14 13  1  0
 15 14  1  0
 16 15  1  0
 16 17  2  0
 17 18  1  0
 18 19  2  0
 19 20  1  0
 20 15  2  0
 19 21  1  0
 22 16  1  0
 23 22  1  0
 14 23  2  0
 21 24  2  0
 21 25  1  0
 25 26  1  0
 26 27  1  0
 27 28  1  0
 28 29  1  0
 29 25  1  0
 27 30  1  1
M  END
> <chembl_id>
CHEMBL3775317

$$$$

  SciTegic01231713372D

 27 31  0  0  0  0            999 V2000
   -2.6111    0.7486    0.0000 C   0  0
   -2.6111   -0.7486    0.0000 C   0  0
   -1.2964   -1.4973    0.0000 C   0  0
   -1.2964    1.4973    0.0000 C   0  0
    0.0000    0.7486    0.0000 C   0  0
    0.0000   -0.7486    0.0000 C   0  0
    1.2964   -1.4973    0.0000 N   0  0
    2.5929   -0.7486    0.0000 C   0  0
    2.5929    0.7486    0.0000 N   0  0
    1.2964    1.4973    0.0000 C   0  0
   -3.9086    1.5029    0.0000 C   0  0
   -4.0476    2.9835    0.0000 C   0  0
   -5.5150    3.2942    0.0000 N   0  0
   -6.2640    1.9946    0.0000 N   0  0
   -5.2594    0.8807    0.0000 C   0  0
    1.2995    2.9981    0.0000 N   0  0
    2.6003    3.7467    0.0000 C   0  0
   -7.4573    1.8682    0.0000 C   0  0
    2.6125    5.2583    0.0000 C   0  0
    5.2023    3.7549    0.0000 C   0  0
    3.8948    2.9937    0.0000 C   0  0
    5.2058    5.2519    0.0000 C   0  0
    3.9108    6.0036    0.0000 C   0  0
    3.9143    7.5007    0.0000 C   0  0
    5.2126    8.2460    0.0000 C   0  0
    6.5075    7.4943    0.0000 C   0  0
    6.5041    5.9973    0.0000 N   0  0
  1  2  2  0
  2  3  1  0
  3  6  2  0
  5  4  2  0
  4  1  1  0
  5  6  1  0
  6  7  1  0
  7  8  2  0
  8  9  1  0
  9 10  2  0
 10  5  1  0
 11 12  1  0
 12 13  2  0
 13 14  1  0
 14 15  1  0
 15 11  2  0
  1 11  1  0
 10 16  1  0
 16 17  1  0
 14 18  1  0
 17 19  2  0
 19 23  1  0
 22 20  1  0
 20 21  2  0
 21 17  1  0
 22 23  1  0
 23 24  2  0
 24 25  1  0
 25 26  2  0
 26 27  1  0
 27 22  2  0
M  END
> <chembl_id>
CHEMBL3828079

$$$$

  SciTegic12201611502D

 25 28  0  0  0  0            999 V2000
   -2.1332   -2.2973    0.0000 N   0  0
   -3.4277   -1.5498    0.0000 C   0  0
   -3.4277    0.0000    0.0000 N   0  0
   -2.1332    0.6928    0.0000 C   0  0
   -0.8205    0.0000    0.0000 C   0  0
    0.4558    0.6928    0.0000 C   0  0
    1.7503    0.0000    0.0000 C   0  0
    1.7503   -1.5498    0.0000 C   0  0
    0.4558   -2.2973    0.0000 C   0  0
   -0.8205   -1.5498    0.0000 C   0  0
    0.4558    2.1879    0.0000 O   0  0
    3.0631    0.6928    0.0000 O   0  0
    3.0631    2.1879    0.0000 C   0  0
    1.7503    2.9537    0.0000 C   0  0
   -2.1454    2.1947    0.0000 N   0  0
    3.0410   -2.3153    0.0000 O   0  0
    3.0274   -3.5152    0.0000 C   0  0
   -3.4508    2.9353    0.0000 C   0  0
   -3.4653    4.4352    0.0000 C   0  0
   -4.7714    5.1728    0.0000 C   0  0
   -6.0632    4.4104    0.0000 C   0  0
   -6.0489    2.9104    0.0000 C   0  0
   -4.7427    2.1729    0.0000 C   0  0
   -4.7858    6.6735    0.0000 C   0  0
   -4.7973    7.8735    0.0000 C   0  0
  1  2  1  0
  2  3  2  0
  3  4  1  0
  4  5  2  0
  5  6  1  0
  6  7  2  0
  7  8  1  0
  8  9  2  0
  9 10  1  0
  1 10  2  0
  5 10  1  0
 12 13  1  0
 13 14  1  0
 11 14  1  0
  6 11  1  0
  7 12  1  0
  4 15  1  0
 16 17  1  0
  8 16  1  0
 18 19  1  0
 19 20  2  0
 20 21  1  0
 21 22  2  0
 22 23  1  0
 18 23  2  0
 24 25  3  0
 20 24  1  0
 15 18  1  0
M  END
> <chembl_id>
CHEMBL3805236

$$$$

  SciTegic09261414462D

 38 41  0  0  0  0            999 V2000
   12.9416   -3.4421    0.0000 C   0  0
   12.9404   -4.2616    0.0000 C   0  0
   13.6485   -4.6706    0.0000 C   0  0
   14.3581   -4.2611    0.0000 C   0  0
   14.3553   -3.4385    0.0000 C   0  0
   13.6467   -3.0332    0.0000 C   0  0
   12.2358   -3.0338    0.0000 N   0  0
   12.2370   -2.2155    0.0000 C   0  0
   11.5300   -1.8072    0.0000 C   0  0
   10.8214   -2.2160    0.0000 N   0  0
   10.8242   -3.0374    0.0000 C   0  0
   11.5318   -3.4421    0.0000 C   0  0
   15.0665   -4.6686    0.0000 N   0  0
   15.7735   -4.2589    0.0000 C   0  0
   16.4786   -4.6668    0.0000 N   0  0
   17.1852   -4.2578    0.0000 C   0  0
   17.1843   -3.4397    0.0000 C   0  0
   16.4710   -3.0324    0.0000 C   0  0
   15.7673   -3.4438    0.0000 N   0  0
   16.4668   -2.2152    0.0000 O   0  0
   17.1724   -1.8031    0.0000 C   0  0
   17.8792   -2.2084    0.0000 C   0  0
   18.5843   -1.7968    0.0000 C   0  0
   18.5806   -0.9788    0.0000 C   0  0
   17.8658   -0.5740    0.0000 C   0  0
   17.1636   -0.9878    0.0000 C   0  0
   19.2939   -2.2022    0.0000 N   0  0
   19.9997   -1.7903    0.0000 C   0  0
   20.7093   -2.1956    0.0000 C   0  0
   19.9959   -0.9731    0.0000 O   0  0
   17.8908   -3.0291    0.0000 Cl  0  0
   13.6483   -5.4878    0.0000 O   0  0
   12.9405   -5.8962    0.0000 C   0  0
   10.1131   -1.8085    0.0000 C   0  0
   21.4151   -1.7838    0.0000 C   0  0
   22.1247   -2.1891    0.0000 N   0  0
   22.8305   -1.7772    0.0000 C   0  0
   22.1284   -3.0063    0.0000 C   0  0
  1  2  2  0
  2  3  1  0
  3  4  2  0
  4  5  1  0
  5  6  2  0
  6  1  1  0
  7  8  1  0
  8  9  1  0
  9 10  1  0
 10 11  1  0
 11 12  1  0
 12  7  1  0
  1  7  1  0
  4 13  1  0
 13 14  1  0
 14 15  2  0
 15 16  1  0
 16 17  2  0
 17 18  1  0
 18 19  2  0
 19 14  1  0
 18 20  1  0
 20 21  1  0
 21 22  2  0
 22 23  1  0
 23 24  2  0
 24 25  1  0
 25 26  2  0
 26 21  1  0
 23 27  1  0
 27 28  1  0
 28 29  1  0
 28 30  2  0
 17 31  1  0
  3 32  1  0
 32 33  1  0
 10 34  1  0
 29 35  1  0
 35 36  1  0
 36 37  1  0
 36 38  1  0
M  END
> <chembl_id>
CHEMBL3237929

$$$$

  SciTegic12161615062D

 33 36  0  0  0  0            999 V2000
    1.2990   -0.7500    0.0000 C   0  0
    1.2990    0.7500    0.0000 C   0  0
    0.0000    1.5000    0.0000 C   0  0
   -1.2990    0.7500    0.0000 C   0  0
   -1.2990   -0.7500    0.0000 C   0  0
    0.0000   -1.5000    0.0000 N   0  0
    2.5972    1.5031    0.0000 C   0  0
    3.6375    0.9049    0.0000 O   0  0
    2.5951    3.0039    0.0000 N   0  0
    2.3383   -1.3500    0.0000 O   0  0
   -0.0031    3.0008    0.0000 N   0  0
   -1.3039    3.7494    0.0000 C   0  0
   -1.3092    5.2494    0.0000 C   0  0
   -2.6108    5.9949    0.0000 C   0  0
   -3.9073    5.2404    0.0000 C   0  0
   -3.9021    3.7404    0.0000 C   0  0
   -2.6005    2.9949    0.0000 C   0  0
   -0.0136    6.0070    0.0000 O   0  0
   -0.0195    7.2070    0.0000 C   0  0
    3.8933    3.7570    0.0000 C   0  0
    3.8933    5.2571    0.0000 C   0  0
    5.1924    6.0071    0.0000 C   0  0
    6.4914    5.2571    0.0000 C   0  0
    6.4915    3.7571    0.0000 C   0  0
    5.1925    3.0071    0.0000 C   0  0
    7.7927    6.0049    0.0000 C   0  0
    9.0914    5.2527    0.0000 N   0  0
   10.3931    5.9982    0.0000 C   0  0
   11.6895    5.2437    0.0000 C   0  0
   11.6844    3.7437    0.0000 N   0  0
   10.3828    2.9982    0.0000 C   0  0
    9.0863    3.7526    0.0000 C   0  0
   12.7216    3.1402    0.0000 C   0  0
  1  2  1  0
  2  3  2  0
  3  4  1  0
  4  5  2  0
  5  6  1  0
  1  6  1  0
  7  8  2  0
  7  9  1  0
  2  7  1  0
  1 10  2  0
  3 11  1  0
 11 12  1  0
 12 13  2  0
 13 14  1  0
 14 15  2  0
 15 16  1  0
 16 17  2  0
 17 12  1  0
 13 18  1  0
 18 19  1  0
  9 20  1  0
 20 21  2  0
 21 22  1  0
 22 23  2  0
 23 24  1  0
 24 25  2  0
 25 20  1  0
 23 26  1  0
 26 27  1  0
 27 28  1  0
 27 32  1  0
 28 29  1  0
 29 30  1  0
 30 31  1  0
 31 32  1  0
 30 33  1  0
M  END
> <chembl_id>
CHEMBL3780563

$$$$

  SciTegic12171313022D

 34 37  0  0  0  0            999 V2000
    1.7939  -12.9099    0.0000 C   0  0
    1.7928  -13.7295    0.0000 C   0  0
    2.5008  -14.1384    0.0000 N   0  0
    3.2105  -13.7290    0.0000 C   0  0
    3.2077  -12.9063    0.0000 N   0  0
    2.4990  -12.5011    0.0000 C   0  0
    1.0861  -12.5015    0.0000 Cl  0  0
    2.4971  -11.6840    0.0000 C   0  0
    3.1568  -11.2016    0.0000 C   0  0
    2.9019  -10.4252    0.0000 N   0  0
    1.8346  -11.2056    0.0000 C   0  0
    2.0875  -10.4285    0.0000 C   0  0
    1.5415   -9.8230    0.0000 C   0  0
    0.7425   -9.9933    0.0000 C   0  0
    0.4924  -10.7746    0.0000 C   0  0
    1.0401  -11.3768    0.0000 C   0  0
    3.9188  -14.1365    0.0000 N   0  0
    4.6259  -13.7268    0.0000 C   0  0
    5.3309  -14.1347    0.0000 C   0  0
    6.0375  -13.7257    0.0000 C   0  0
    4.6197  -12.9117    0.0000 C   0  0
    5.3310  -14.9519    0.0000 O   0  0
    4.6233  -15.3606    0.0000 C   0  0
    5.3195  -12.4995    0.0000 C   0  0
    6.0328  -12.9084    0.0000 C   0  0
    5.3147  -11.6823    0.0000 N   0  0
    6.0200  -11.2696    0.0000 C   0  0
    6.0152  -10.4524    0.0000 C   0  0
    6.7301  -11.6740    0.0000 O   0  0
    6.7205  -10.0397    0.0000 C   0  0
    6.7157   -9.2225    0.0000 C   0  0
    7.4210   -8.8098    0.0000 N   0  0
    7.4162   -7.9963    0.0000 C   0  0
    8.1311   -9.2142    0.0000 C   0  0
  1  2  2  0
  2  3  1  0
  3  4  2  0
  4  5  1  0
  5  6  2  0
  6  1  1  0
  1  7  1  0
  8  9  2  0
  9 10  1  0
 10 12  1  0
 11  8  1  0
  6  8  1  0
 11 12  2  0
 12 13  1  0
 13 14  2  0
 14 15  1  0
 15 16  2  0
 16 11  1  0
  4 17  1  0
 17 18  1  0
 18 19  2  0
 19 20  1  0
 20 25  2  0
 24 21  2  0
 21 18  1  0
 19 22  1  0
 22 23  1  0
 24 25  1  0
 24 26  1  0
 26 27  1  0
 27 28  1  0
 27 29  2  0
 28 30  2  0
 30 31  1  0
 31 32  1  0
 32 33  1  0
 32 34  1  0
M  END
> <chembl_id>
CHEMBL2426287

$$$$

  SciTegic12091611202D

 29 31  0  0  0  0            999 V2000
   -7.5133    0.6990    0.0000 C   0  0
   -6.2219    1.4621    0.0000 N   0  0
   -4.9153    0.7255    0.0000 C   0  0
   -4.9001   -0.7745    0.0000 C   0  0
   -6.1914   -1.5377    0.0000 C   0  0
   -7.4980   -0.8010    0.0000 N   0  0
   -8.8221    1.4334    0.0000 N   0  0
   -3.6217    1.4865    0.0000 N   0  0
  -10.1131    0.6680    0.0000 C   0  0
  -11.4219    1.4024    0.0000 C   0  0
  -11.4362    2.6023    0.0000 C   0  0
  -12.7129    0.6370    0.0000 S   0  0
  -13.7594    1.2242    0.0000 O   0  0
  -13.7448    0.0245    0.0000 O   0  0
  -12.6986   -0.5629    0.0000 C   0  0
  -10.3900    2.0149    0.0000 C   0  0
   -1.0028   -1.5132    0.0000 C   0  0
    0.2917   -0.7475    0.0000 C   0  0
    0.2917    0.7475    0.0000 C   0  0
   -1.0028    1.5132    0.0000 C   0  0
   -2.3155    0.7475    0.0000 C   0  0
   -2.3155   -0.7475    0.0000 N   0  0
    2.5889    0.0182    0.0000 C   0  0
    1.7138   -1.2033    0.0000 N   0  0
    1.7138    1.2033    0.0000 N   0  0
    3.7889    0.0269    0.0000 C   0  0
    2.1812    2.6271    0.0000 C   0  0
    3.3556    2.8737    0.0000 C   0  0
    1.3808    3.5211    0.0000 C   0  0
  1  2  1  0
  2  3  2  0
  3  4  1  0
  4  5  2  0
  5  6  1  0
  1  6  2  0
  1  7  1  0
  3  8  1  0
  9 10  1  0
 10 11  1  0
 12 13  2  0
 12 14  2  0
 12 15  1  0
 10 12  1  0
 10 16  1  0
  7  9  1  0
 17 18  1  0
 18 19  2  0
 19 20  1  0
 20 21  2  0
 21 22  1  0
 17 22  2  0
 23 24  2  0
 23 25  1  0
 18 24  1  0
 19 25  1  0
 23 26  1  0
 27 28  1  0
 27 29  1  0
 25 27  1  0
  8 21  1  0
M  END
> <chembl_id>
CHEMBL3735782

$$$$

  SciTegic12091611192D

 29 33  0  0  0  0            999 V2000
   -3.6217    1.4865    0.0000 N   0  0
   -7.5133    0.6990    0.0000 C   0  0
   -6.2219    1.4621    0.0000 N   0  0
   -4.9153    0.7255    0.0000 C   0  0
   -4.9001   -0.7745    0.0000 C   0  0
   -6.1914   -1.5377    0.0000 C   0  0
   -7.4980   -0.8010    0.0000 N   0  0
   -8.8205    1.4361    0.0000 N   0  0
   -8.8383    2.9360    0.0000 C   0  0
  -10.1461    3.6707    0.0000 C   0  0
  -11.4362    2.9055    0.0000 C   0  0
  -11.4185    1.4056    0.0000 C   0  0
  -10.1108    0.6709    0.0000 C   0  0
  -12.7462    3.6378    0.0000 O   0  0
  -13.7774    3.0242    0.0000 C   0  0
   -1.0028   -1.5132    0.0000 C   0  0
    0.2917   -0.7475    0.0000 C   0  0
    0.2917    0.7475    0.0000 C   0  0
   -1.0028    1.5132    0.0000 C   0  0
   -2.3155    0.7475    0.0000 C   0  0
   -2.3155   -0.7475    0.0000 N   0  0
    2.5889    0.0182    0.0000 C   0  0
    1.7138   -1.2033    0.0000 N   0  0
    1.7138    1.2033    0.0000 N   0  0
    2.1749    2.6315    0.0000 C   0  0
    1.3751    3.8801    0.0000 C   0  0
    2.3406    5.0280    0.0000 C   0  0
    3.7308    4.4644    0.0000 C   0  0
    3.6243    2.9682    0.0000 C   0  0
  2  3  1  0
  3  4  2  0
  4  5  1  0
  5  6  2  0
  6  7  1  0
  2  7  2  0
  8  9  1  0
  9 10  1  0
 10 11  1  0
 11 12  1  0
 12 13  1  0
  8 13  1  0
 14 15  1  0
 11 14  1  0
  2  8  1  0
  1  4  1  0
 16 17  1  0
 17 18  2  0
 18 19  1  0
 19 20  2  0
 20 21  1  0
 16 21  2  0
 22 23  2  0
 22 24  1  0
 17 23  1  0
 18 24  1  0
 25 26  1  0
 26 27  1  0
 27 28  1  0
 28 29  1  0
 25 29  1  0
 24 25  1  0
  1 20  1  0
M  END
> <chembl_id>
CHEMBL3734825

$$$$

  SciTegic09291413392D

 32 35  0  0  0  0            999 V2000
    2.5079  -13.5290    0.0000 C   0  0
    2.5068  -14.3486    0.0000 C   0  0
    3.2148  -14.7575    0.0000 C   0  0
    3.9245  -14.3481    0.0000 C   0  0
    3.9217  -13.5254    0.0000 C   0  0
    3.2130  -13.1202    0.0000 C   0  0
    4.6293  -14.7582    0.0000 C   0  0
    4.7160  -15.5707    0.0000 C   0  0
    5.5157  -15.7394    0.0000 S   0  0
    5.9232  -15.0310    0.0000 C   0  0
    5.3753  -14.4246    0.0000 N   0  0
    3.2146  -15.5747    0.0000 C   0  0
    4.6278  -13.1142    0.0000 C   0  0
    1.8001  -13.1206    0.0000 O   0  0
    6.7357  -14.9442    0.0000 N   0  0
    7.0669  -14.1971    0.0000 C   0  0
    7.8795  -14.1104    0.0000 C   0  0
    6.5855  -13.5368    0.0000 O   0  0
    8.3568  -14.7707    0.0000 C   0  0
    9.1686  -14.6844    0.0000 C   0  0
    9.5005  -13.9367    0.0000 N   0  0
    9.0145  -13.2745    0.0000 C   0  0
    8.2044  -13.3641    0.0000 C   0  0
    9.3430  -12.5262    0.0000 F   0  0
    1.0921  -11.8950    0.0000 C   0  0
    1.7967  -12.3050    0.0000 C   0  0
    2.5021  -11.8999    0.0000 C   0  0
    2.5040  -11.0849    0.0000 C   0  0
    1.7947  -10.6767    0.0000 C   0  0
    1.0923  -11.0842    0.0000 C   0  0
    1.7933   -9.8595    0.0000 O   0  0
    2.5003   -9.4497    0.0000 C   0  0
  1  2  2  0
  2  3  1  0
  3  4  2  0
  4  5  1  0
  5  6  2  0
  6  1  1  0
  7  8  2  0
  8  9  1  0
  9 10  1  0
 10 11  2  0
 11  7  1  0
  4  7  1  0
  3 12  1  0
  5 13  1  0
  1 14  1  0
 10 15  1  0
 15 16  1  0
 16 17  1  0
 16 18  2  0
 17 19  2  0
 19 20  1  0
 20 21  2  0
 21 22  1  0
 22 23  2  0
 23 17  1  0
 14 26  1  0
 22 24  1  0
 25 26  2  0
 26 27  1  0
 27 28  2  0
 28 29  1  0
 29 30  2  0
 30 25  1  0
 29 31  1  0
 31 32  1  0
M  END
> <chembl_id>
CHEMBL3263869

$$$$

  SciTegic01161211212D

 31 34  0  0  0  0            999 V2000
   10.6718   -1.6838    0.0000 C   0  0
   10.6736   -2.5156    0.0000 C   0  0
   11.3824   -2.9179    0.0000 N   0  0
   11.3786   -1.2674    0.0000 C   0  0
   12.0950   -1.6732    0.0000 C   0  0
   12.0989   -2.5064    0.0000 C   0  0
   13.5225   -2.4996    0.0000 C   0  0
   12.7983   -1.2663    0.0000 N   0  0
   12.7983   -0.4414    0.0000 C   0  0
   13.5298   -1.6899    0.0000 C   0  0
   14.9545   -0.0222    0.0000 C   0  0
   13.5135   -0.0294    0.0000 C   0  0
   14.2350   -0.4414    0.0000 C   0  0
   14.9558    0.8127    0.0000 C   0  0
   14.2244    1.2228    0.0000 C   0  0
   13.5058    0.7971    0.0000 C   0  0
   12.7871    1.2022    0.0000 C   0  0
   12.7787    2.0271    0.0000 F   0  0
   12.0770    0.7825    0.0000 F   0  0
   12.0664    1.6157    0.0000 F   0  0
   15.6693   -0.4338    0.0000 Cl  0  0
    9.9551   -1.2752    0.0000 C   0  0
    9.9544   -0.4529    0.0000 C   0  0
    9.2386   -0.0445    0.0000 C   0  0
    8.5254   -0.4608    0.0000 C   0  0
    8.5326   -1.2900    0.0000 C   0  0
    9.2491   -1.6947    0.0000 C   0  0
    7.8083   -0.0532    0.0000 C   0  0
    7.8026    0.7717    0.0000 O   0  0
    7.0967   -0.4706    0.0000 O   0  0
   12.8127   -2.9201    0.0000 N   0  0
 11 14  2  0
 14 15  1  0
 15 16  2  0
 16 12  1  0
  9 12  1  0
 16 17  1  0
  1  2  1  0
 17 18  1  0
  2  3  2  0
 17 19  1  0
  3  6  1  0
 17 20  1  0
  5  4  1  0
 11 21  1  0
  4  1  2  0
  1 22  1  0
  5  6  2  0
 22 23  2  0
  5  8  1  0
 23 24  1  0
 24 25  2  0
 25 26  1  0
  7 10  1  0
 26 27  2  0
 27 22  1  0
 10  8  1  0
 25 28  1  0
  8  9  1  0
 28 29  2  0
 12 13  2  0
 28 30  1  0
 13 11  1  0
  6 31  1  0
 31  7  1  0
M  END
> <chembl_id>
CHEMBL1163510

$$$$

  SciTegic04091414352D

 36 39  0  0  0  0            999 V2000
   15.3746   -6.9283    0.0000 C   0  0
   14.6480   -7.3033    0.0000 C   0  0
   13.9599   -6.8617    0.0000 C   0  0
   13.2333   -7.2368    0.0000 C   0  0
   15.4130   -6.1115    0.0000 O   0  0
   16.0627   -7.3699    0.0000 O   0  0
   12.5452   -6.7951    0.0000 N   0  0
   11.8187   -7.1702    0.0000 C   0  0
   11.7802   -7.9869    0.0000 O   0  0
   11.1306   -6.7285    0.0000 N   0  0
    8.2243   -8.2288    0.0000 N   0  0
    7.5362   -7.7872    0.0000 C   0  0
    7.5746   -6.9704    0.0000 N   0  0
    8.3012   -6.5953    0.0000 C   0  0
    8.9893   -7.0370    0.0000 C   0  0
    9.7159   -6.6619    0.0000 C   0  0
   10.4040   -7.1036    0.0000 C   0  0
   10.3655   -7.9203    0.0000 C   0  0
    9.6390   -8.2954    0.0000 C   0  0
    8.9509   -7.8537    0.0000 C   0  0
   11.0537   -8.3620    0.0000 O   0  0
   10.5477  -10.4164    0.0000 O   0  0
   10.3318   -9.6278    0.0000 C   0  0
   11.0152   -9.1788    0.0000 C   0  0  2  0  0  0
   11.6534   -9.6900    0.0000 C   0  0
   11.3644  -10.4549    0.0000 C   0  0
    8.3396   -5.7785    0.0000 N   0  0
    7.6515   -5.3369    0.0000 C   0  0
    6.9250   -5.7120    0.0000 C   0  0
    6.2369   -5.2703    0.0000 C   0  0
    6.2753   -4.4535    0.0000 C   0  0
    7.0019   -4.0784    0.0000 C   0  0
    7.6900   -4.5201    0.0000 C   0  0
    5.5872   -4.0118    0.0000 F   0  0
    5.5103   -5.6454    0.0000 Cl  0  0
   16.7892   -6.9948    0.0000 C   0  0
  1  2  1  0
  2  3  2  0
  3  4  1  0
  1  5  2  0
  1  6  1  0
  7  8  1  0
  8  9  2  0
  8 10  1  0
 11 12  1  0
 12 13  2  0
 13 14  1  0
 14 15  2  0
 15 16  1  0
 16 17  2  0
 17 18  1  0
 18 19  2  0
 19 20  1  0
 11 20  2  0
 15 20  1  0
 22 23  1  0
 23 24  1  0
 24 25  1  0
 25 26  1  0
 22 26  1  0
 24 21  1  1
 18 21  1  0
 28 29  1  0
 29 30  2  0
 30 31  1  0
 31 32  2  0
 32 33  1  0
 28 33  2  0
 31 34  1  0
 30 35  1  0
 27 28  1  0
 14 27  1  0
 10 17  1  0
  4  7  1  0
  6 36  1  0
M  END
> <chembl_id>
CHEMBL3092305

$$$$

  SciTegic01161211252D

 30 32  0  0  0  0            999 V2000
    4.9236    2.0917    0.0000 C   0  0
    4.9224    1.2643    0.0000 C   0  0
    5.6372    0.8515    0.0000 C   0  0
    6.3537    1.2648    0.0000 N   0  0
    6.3508    2.0953    0.0000 C   0  0
    5.6354    2.5045    0.0000 C   0  0
    7.0688    0.8534    0.0000 C   0  0
    7.0701    0.0284    0.0000 C   0  0
    6.3549   -0.3836    0.0000 C   0  0
    6.3559   -1.2078    0.0000 C   0  0
    7.0715   -1.6200    0.0000 C   0  0
    7.7877   -1.2020    0.0000 C   0  0
    7.7833   -0.3791    0.0000 C   0  0
    5.6370    0.0265    0.0000 O   0  0
    4.2076    0.8524    0.0000 Br  0  0
    4.2090    2.5040    0.0000 O   0  0
    3.4946    2.0914    0.0000 C   0  0
    2.7801    2.5037    0.0000 C   0  0
    2.7794    3.3293    0.0000 C   0  0
    2.0656    3.7415    0.0000 C   0  0
    1.3581    3.3288    0.0000 C   0  0
    1.3552    2.4996    0.0000 C   0  0
    2.0674    2.0910    0.0000 C   0  0
    2.0691    1.2660    0.0000 F   0  0
    0.6434    3.7410    0.0000 F   0  0
    7.0637    2.5105    0.0000 C   0  0
    7.0739   -2.4450    0.0000 C   0  0
    7.7896   -2.8555    0.0000 N   0  0
    7.7920   -3.6805    0.0000 C   0  0
    8.5029   -2.4409    0.0000 C   0  0
  4  7  1  0
  2 15  1  0
  3  4  1  0
  1 16  1  0
  7  8  1  0
 16 17  1  0
 17 18  1  0
  8  9  2  0
 18 19  2  0
  4  5  1  0
 19 20  1  0
  9 10  1  0
 20 21  2  0
  2  3  1  0
 21 22  1  0
 10 11  2  0
 22 23  2  0
 23 18  1  0
  5  6  2  0
 23 24  1  0
 11 12  1  0
 21 25  1  0
  6  1  1  0
  5 26  1  0
 12 13  2  0
 11 27  1  0
 13  8  1  0
 27 28  1  0
  1  2  2  0
 28 29  1  0
  3 14  2  0
 28 30  1  0
M  END
> <chembl_id>
CHEMBL1078665

$$$$

  SciTegic09261414462D

 41 45  0  0  0  0            999 V2000
   20.1518  -10.0333    0.0000 C   0  0
   20.1507  -10.8528    0.0000 C   0  0
   20.8587  -11.2618    0.0000 C   0  0
   21.5684  -10.8523    0.0000 C   0  0
   21.5656  -10.0297    0.0000 C   0  0
   20.8570   -9.6244    0.0000 C   0  0
   19.4461   -9.6250    0.0000 N   0  0
   19.4472   -8.8067    0.0000 C   0  0
   18.7403   -8.3984    0.0000 C   0  0
   18.0317   -8.8072    0.0000 N   0  0
   18.0345   -9.6286    0.0000 C   0  0
   18.7421  -10.0332    0.0000 C   0  0
   22.2768  -11.2598    0.0000 N   0  0
   22.9838  -10.8501    0.0000 C   0  0
   23.6888  -11.2580    0.0000 N   0  0
   24.3954  -10.8490    0.0000 C   0  0
   24.3946  -10.0309    0.0000 C   0  0
   23.6813   -9.6236    0.0000 C   0  0
   22.9776  -10.0350    0.0000 N   0  0
   23.6771   -8.8064    0.0000 O   0  0
   24.3827   -8.3942    0.0000 C   0  0
   25.0894   -8.7995    0.0000 C   0  0
   25.7946   -8.3880    0.0000 C   0  0
   25.7908   -7.5700    0.0000 C   0  0
   25.0761   -7.1652    0.0000 C   0  0
   24.3739   -7.5790    0.0000 C   0  0
   26.5041   -8.7933    0.0000 N   0  0
   27.2100   -8.3815    0.0000 C   0  0
   27.9195   -8.7868    0.0000 C   0  0
   27.2062   -7.5643    0.0000 O   0  0
   25.1011   -9.6203    0.0000 Cl  0  0
   20.8585  -12.0789    0.0000 O   0  0
   20.1507  -12.4874    0.0000 C   0  0
   17.3233   -8.3997    0.0000 C   0  0
   28.6254   -8.3750    0.0000 C   0  0
   29.3349   -8.7803    0.0000 N   0  0
   29.3338   -9.5966    0.0000 C   0  0
   30.0393  -10.0019    0.0000 C   0  0
   30.7475   -9.5935    0.0000 C   0  0
   30.7457   -8.7753    0.0000 C   0  0
   30.0357   -8.3656    0.0000 C   0  0
  1  2  2  0
  2  3  1  0
  3  4  2  0
  4  5  1  0
  5  6  2  0
  6  1  1  0
  7  8  1  0
  8  9  1  0
  9 10  1  0
 10 11  1  0
 11 12  1  0
 12  7  1  0
  1  7  1  0
  4 13  1  0
 13 14  1  0
 14 15  2  0
 15 16  1  0
 16 17  2  0
 17 18  1  0
 18 19  2  0
 19 14  1  0
 18 20  1  0
 20 21  1  0
 21 22  2  0
 22 23  1  0
 23 24  2  0
 24 25  1  0
 25 26  2  0
 26 21  1  0
 23 27  1  0
 27 28  1  0
 28 29  1  0
 28 30  2  0
 17 31  1  0
  3 32  1  0
 32 33  1  0
 10 34  1  0
 29 35  1  0
 35 36  1  0
 36 37  1  0
 36 41  1  0
 37 38  1  0
 38 39  1  0
 39 40  1  0
 40 41  1  0
M  END
> <chembl_id>
CHEMBL3237932

$$$$

  SciTegic04091414152D

 44 49  0  0  0  0            999 V2000
   32.2957   -1.4292    0.0000 N   0  0
   32.2946   -2.2566    0.0000 C   0  0
   33.0094   -2.6695    0.0000 N   0  0
   33.0076   -1.0164    0.0000 C   0  0
   33.7231   -1.4256    0.0000 C   0  0
   33.7238   -2.2524    0.0000 C   0  0
   34.4392   -2.6634    0.0000 N   0  0
   35.1542   -2.2487    0.0000 C   0  0
   35.1495   -1.4186    0.0000 N   0  0
   34.4336   -1.0114    0.0000 C   0  0
   31.5798   -2.6686    0.0000 N   0  0
   34.4409   -3.4885    0.0000 C   0  0  2  0  0  0
   35.8703   -2.6584    0.0000 O   0  0
   35.8614   -1.0017    0.0000 C   0  0
   36.5784   -1.4099    0.0000 C   0  0
   36.5787   -2.2345    0.0000 C   0  0
   37.2950   -2.6426    0.0000 C   0  0
   38.0079   -2.2257    0.0000 C   0  0
   38.0002   -1.3964    0.0000 C   0  0
   37.2834   -0.9920    0.0000 C   0  0
   33.7246   -3.8985    0.0000 C   0  0
   33.7260   -4.7228    0.0000 C   0  0
   34.4418   -5.1346    0.0000 C   0  0
   35.1578   -4.7162    0.0000 N   0  0
   35.1530   -3.8933    0.0000 C   0  0
   31.5791   -3.4936    0.0000 C   0  0
   30.8642   -3.9039    0.0000 C   0  0
   30.8632   -4.7283    0.0000 C   0  0
   31.5779   -5.1422    0.0000 C   0  0
   32.2951   -4.7257    0.0000 C   0  0
   32.2926   -3.9028    0.0000 C   0  0
   31.5783   -5.9671    0.0000 N   0  0
   30.8636   -6.3808    0.0000 C   0  0
   30.8621   -7.2022    0.0000 C   0  0
   31.5750   -7.6182    0.0000 N   0  0
   32.2911   -7.2065    0.0000 C   0  0
   32.2943   -6.3788    0.0000 C   0  0
   31.5724   -8.4432    0.0000 C   0  0
   30.1504   -3.4901    0.0000 O   0  0
   29.4352   -3.9013    0.0000 C   0  0
   35.8747   -5.1247    0.0000 C   0  0
   35.8793   -5.9498    0.0000 C   0  0
   36.5868   -4.7082    0.0000 O   0  0
   35.1671   -6.3662    0.0000 C   0  0
  1  2  2  0
  2  3  1  0
  3  6  2  0
  5  4  2  0
  4  1  1  0
  5  6  1  0
  6  7  1  0
  7  8  1  0
  8  9  1  0
  9 10  1  0
 10  5  1  0
  2 11  1  0
 12  7  1  1
  8 13  2  0
  9 14  1  0
 14 15  1  0
 15 16  2  0
 16 17  1  0
 17 18  2  0
 18 19  1  0
 19 20  2  0
 20 15  1  0
 12 21  1  0
 21 22  1  0
 22 23  1  0
 23 24  1  0
 24 25  1  0
 25 12  1  0
 11 26  1  0
 26 27  2  0
 27 28  1  0
 28 29  2  0
 29 30  1  0
 30 31  2  0
 31 26  1  0
 29 32  1  0
 32 33  1  0
 32 37  1  0
 33 34  1  0
 34 35  1  0
 35 36  1  0
 36 37  1  0
 35 38  1  0
 27 39  1  0
 39 40  1  0
 24 41  1  0
 41 42  1  0
 41 43  2  0
 42 44  2  0
M  END
> <chembl_id>
CHEMBL3087206

$$$$

  SciTegic09081514182D

 43 44  0  0  0  0            999 V2000
    1.2990   -0.7500    0.0000 C   0  0
    1.2990    0.7500    0.0000 C   0  0
    0.0000    1.5000    0.0000 C   0  0
   -1.2990    0.7500    0.0000 C   0  0
   -1.2990   -0.7500    0.0000 C   0  0
    0.0000   -1.5000    0.0000 C   0  0
   -2.5972   -1.5031    0.0000 C   0  0
   -2.5951   -3.0039    0.0000 C   0  0
   -3.8933   -3.7570    0.0000 C   0  0
   -3.8912   -5.2578    0.0000 C   0  0
   -4.9336   -3.1588    0.0000 O   0  0
   -5.1894   -6.0109    0.0000 C   0  0
   -5.1872   -7.5117    0.0000 C   0  0
   -6.2296   -5.4127    0.0000 O   0  0
   -6.4854   -8.2648    0.0000 C   0  0
   -6.4833   -9.7657    0.0000 C   0  0
   -7.7797  -10.5203    0.0000 C   0  0
   -7.7745  -12.0202    0.0000 C   0  0
   -6.4729  -12.7657    0.0000 C   0  0
   -5.1764  -12.0112    0.0000 C   0  0
   -5.1816  -10.5113    0.0000 C   0  0
    2.5973   -1.5031    0.0000 O   0  0
    2.5972    1.5031    0.0000 O   0  0
   -6.4708  -14.2666    0.0000 O   0  0
   -3.8726  -12.7545    0.0000 O   0  0
    2.5956   -2.7031    0.0000 C   0  0
    2.5951    3.0039    0.0000 C   0  0
   -2.8363  -12.1494    0.0000 C   0  0
   -7.7690  -15.0196    0.0000 C   0  0
    3.8933    3.7570    0.0000 C   0  0
    3.8912    5.2578    0.0000 C   0  0
    5.1894    6.0109    0.0000 C   0  0
    6.2296    5.4128    0.0000 O   0  0
    5.1872    7.5118    0.0000 O   0  0
    6.4854    8.2649    0.0000 C   0  0
    6.4837    9.4649    0.0000 C   0  0
   -7.7669  -16.5205    0.0000 C   0  0
   -9.0651  -17.2735    0.0000 C   0  0
   -9.0630  -18.7743    0.0000 C   0  0
  -10.3612  -19.5274    0.0000 O   0  0
   -8.0227  -19.3725    0.0000 O   0  0
  -10.3591  -21.0282    0.0000 C   0  0
  -11.3971  -21.6303    0.0000 C   0  0
  1  2  2  0
  2  3  1  0
  3  4  2  0
  4  5  1  0
  5  6  2  0
  6  1  1  0
  5  7  1  0
  7  8  2  0
  8  9  1  0
  9 10  2  0
  9 11  1  0
 10 12  1  0
 12 13  1  0
 12 14  2  0
 13 15  2  0
 15 16  1  0
 16 17  2  0
 17 18  1  0
 18 19  2  0
 19 20  1  0
 20 21  2  0
 21 16  1  0
  1 22  1  0
  2 23  1  0
 19 24  1  0
 20 25  1  0
 22 26  1  0
 23 27  1  0
 25 28  1  0
 24 29  1  0
 27 30  1  0
 30 31  1  0
 31 32  1  0
 32 33  2  0
 32 34  1  0
 34 35  1  0
 35 36  1  0
 29 37  1  0
 37 38  1  0
 38 39  1  0
 39 40  1  0
 39 41  2  0
 40 42  1  0
 42 43  1  0
M  END
> <chembl_id>
CHEMBL3402860

$$$$

  SciTegic04191617032D

 32 35  0  0  0  0            999 V2000
    1.2990   -0.7500    0.0000 C   0  0
    1.2990    0.7500    0.0000 C   0  0
    0.0000    1.5000    0.0000 N   0  0
   -1.2990    0.7500    0.0000 C   0  0
   -1.2990   -0.7500    0.0000 N   0  0
    0.0000   -1.5000    0.0000 C   0  0
    0.0031   -3.0008    0.0000 N   0  0
    1.3039   -3.7494    0.0000 C   0  0
    1.4469   -5.2297    0.0000 C   0  0
    2.9152   -5.5365    0.0000 C   0  0
    3.6607   -4.2349    0.0000 N   0  0
    2.6532   -3.1236    0.0000 N   0  0
    3.4071   -6.6311    0.0000 C   0  0
   -2.6003    1.4977    0.0000 O   0  0
   -3.8990    0.7455    0.0000 C   0  0
   -5.2007    1.4909    0.0000 C   0  0
   -6.4972    0.7364    0.0000 C   0  0
   -6.4920   -0.7636    0.0000 C   0  0
   -5.1903   -1.5091    0.0000 C   0  0
   -3.8939   -0.7546    0.0000 C   0  0
    2.5987    1.5004    0.0000 N   0  0
    3.8991    0.7525    0.0000 C   0  0
    5.1969    1.5046    0.0000 C   0  0
    5.1945    3.0046    0.0000 N   0  0
    3.8943    3.7525    0.0000 C   0  0
    2.5964    3.0004    0.0000 C   0  0
    6.2328    3.6062    0.0000 C   0  0
   -7.7876   -1.5212    0.0000 N   0  0
   -7.7802   -3.0220    0.0000 C   0  0
   -9.0758   -3.7796    0.0000 C   0  0
   -6.7379   -3.6166    0.0000 O   0  0
   -9.0700   -4.9795    0.0000 C   0  0
  1  2  2  0
  2  3  1  0
  3  4  2  0
  4  5  1  0
  5  6  2  0
  6  1  1  0
  6  7  1  0
  7  8  1  0
  8  9  1  0
  9 10  2  0
 10 11  1  0
 11 12  1  0
 12  8  2  0
 10 13  1  0
  4 14  1  0
 14 15  1  0
 15 16  2  0
 16 17  1  0
 17 18  2  0
 18 19  1  0
 19 20  2  0
 20 15  1  0
  2 21  1  0
 21 22  1  0
 21 26  1  0
 22 23  1  0
 23 24  1  0
 24 25  1  0
 25 26  1  0
 24 27  1  0
 18 28  1  0
 28 29  1  0
 29 30  1  0
 29 31  2  0
 30 32  2  0
M  END
> <chembl_id>
CHEMBL3604922

$$$$

  SciTegic12131613482D

 26 30  0  0  0  0            999 V2000
    0.8955    2.0810    0.0000 C   0  0
    1.7138    1.2033    0.0000 C   0  0
    2.8908    1.4370    0.0000 C   0  0
   -1.0028    1.5132    0.0000 N   0  0
   -2.3155    0.7475    0.0000 C   0  0
   -2.3155   -0.7475    0.0000 N   0  0
   -1.0028   -1.5132    0.0000 C   0  0
    0.2917    0.7475    0.0000 C   0  0
    0.2917   -0.7475    0.0000 C   0  0
    1.7138   -1.2033    0.0000 C   0  0
    2.5889    0.0182    0.0000 O   0  0
   -3.6168    1.4950    0.0000 C   0  0
   -4.9669    0.8708    0.0000 C   0  0
   -5.9732    1.9832    0.0000 N   0  0
   -5.2262    3.2840    0.0000 N   0  0
   -3.7582    2.9755    0.0000 C   0  0
   -0.9971   -3.0138    0.0000 N   0  0
   -2.2935   -3.7700    0.0000 C   0  0
   -2.4224   -5.2267    0.0000 S   0  0
   -3.6508   -3.1571    0.0000 N   0  0
   -4.6410   -4.2749    0.0000 C   0  0
   -3.8780   -5.5605    0.0000 C   0  0
   -4.6003   -6.8797    0.0000 C   0  0
   -6.1200   -6.8912    0.0000 C   0  0
   -6.8830   -5.6056    0.0000 C   0  0
   -6.1450   -4.2771    0.0000 C   0  0
  2  1  1  0
  3  2  1  0
  8  4  1  0
  4  5  2  0
  5  6  1  0
  6  7  2  0
  7  9  1  0
  8  9  2  0
  9 10  1  0
 10 11  1  0
 11  2  1  0
  2  8  1  0
  5 12  1  0
 12 13  2  0
 13 14  1  0
 14 15  1  0
 15 16  2  0
 16 12  1  0
  7 17  1  0
 17 18  1  0
 18 19  1  0
 19 22  1  0
 21 20  1  0
 20 18  2  0
 21 22  2  0
 22 23  1  0
 23 24  2  0
 24 25  1  0
 25 26  2  0
 26 21  1  0
M  END
> <chembl_id>
CHEMBL3758921

$$$$

  SciTegic02271217242D

 41 43  0  0  0  0            999 V2000
   -0.3378  -10.8485    0.0000 N   0  0
    0.3787  -10.4352    0.0000 C   0  0
    0.3758   -9.6047    0.0000 N   0  0
   -0.3396   -9.1955    0.0000 C   0  0
   -1.0526  -10.4357    0.0000 C   0  0
   -1.0514   -9.6068    0.0000 C   0  0
   -1.8393   -9.3494    0.0000 N   0  0
   -2.3276  -10.0193    0.0000 C   0  0
   -1.8413  -10.6906    0.0000 C   0  0
   -0.3414   -8.3705    0.0000 N   0  0
    0.3722   -7.9565    0.0000 C   0  0
    1.0844   -8.3704    0.0000 C   0  0
    1.7975   -7.9570    0.0000 C   0  0
    1.7962   -7.1311    0.0000 C   0  0
    1.0758   -6.7203    0.0000 C   0  0
    0.3656   -7.1361    0.0000 C   0  0
    2.5127   -8.3682    0.0000 Cl  0  0
    2.5092   -6.7161    0.0000 O   0  0
   -2.0931   -8.5644    0.0000 C   0  0
    3.2251   -7.1261    0.0000 C   0  0
    3.2251   -7.9511    0.0000 C   0  0
    3.9402   -8.3610    0.0000 C   0  0
    4.6542   -7.9459    0.0000 C   0  0
    4.6486   -7.1167    0.0000 C   0  0
    3.9330   -6.7105    0.0000 C   0  0
    5.3602   -6.6991    0.0000 C   0  0
    6.0775   -7.1066    0.0000 F   0  0
    5.3544   -5.8741    0.0000 F   0  0
    6.0708   -6.2792    0.0000 F   0  0
   -2.8998   -8.3916    0.0000 C   0  0
   -3.1535   -7.6066    0.0000 N   0  0
   -3.9602   -7.4338    0.0000 C   0  0
   -4.2139   -6.6488    0.0000 C   0  0
   -4.5132   -8.0461    0.0000 O   0  0
   -5.0207   -6.4761    0.0000 C   0  0
   -5.2744   -5.6910    0.0000 O   0  0
    6.8042   -8.5316    0.0000 O   0  0
    7.2188   -9.2449    0.0000 S   0  0
    7.6292   -8.5291    0.0000 O   0  0
    6.5097   -9.6597    0.0000 C   0  0
    7.9319   -9.6597    0.0000 O   0  0
 13 17  1  0
  7  8  1  0
 14 18  1  0
  8  9  2  0
  7 19  1  0
  9  5  1  0
 18 20  1  0
  4  6  1  0
 20 21  2  0
  4 10  1  0
 21 22  1  0
  5  6  2  0
 22 23  2  0
 10 11  1  0
 23 24  1  0
  1  2  2  0
 24 25  2  0
 25 20  1  0
 11 12  2  0
 24 26  1  0
  5  1  1  0
 26 27  1  0
 12 13  1  0
 26 28  1  0
  2  3  1  0
 26 29  1  0
 13 14  2  0
 19 30  1  0
 30 31  1  0
 14 15  1  0
 31 32  1  0
  3  4  2  0
 32 33  1  0
 15 16  2  0
 32 34  2  0
 16 11  1  0
 33 35  1  0
  6  7  1  0
 35 36  1  0
 38 37  2  0
 39 38  2  0
 40 38  1  0
 38 41  1  0
M  END
> <chembl_id>
CHEMBL1923022

$$$$

  SciTegic12131613492D

 28 32  0  0  0  0            999 V2000
    0.8955    2.0810    0.0000 C   0  0
    1.7138    1.2033    0.0000 C   0  0
    2.8908    1.4370    0.0000 C   0  0
   -1.0028    1.5132    0.0000 N   0  0
   -2.3155    0.7475    0.0000 C   0  0
   -2.3155   -0.7475    0.0000 N   0  0
   -1.0028   -1.5132    0.0000 C   0  0
    0.2917    0.7475    0.0000 C   0  0
    0.2917   -0.7475    0.0000 C   0  0
    1.7138   -1.2033    0.0000 C   0  0
    2.5889    0.0182    0.0000 O   0  0
   -3.6168    1.4950    0.0000 C   0  0
   -4.9669    0.8708    0.0000 C   0  0
   -5.9732    1.9832    0.0000 N   0  0
   -5.2262    3.2840    0.0000 N   0  0
   -3.7582    2.9755    0.0000 C   0  0
   -0.9971   -3.0138    0.0000 N   0  0
   -2.2935   -3.7700    0.0000 C   0  0
   -4.6304   -4.2656    0.0000 N   0  0
   -3.6203   -3.1531    0.0000 N   0  0
   -3.8857   -5.5600    0.0000 C   0  0
   -2.4241   -5.2456    0.0000 C   0  0
   -1.4032   -6.3500    0.0000 C   0  0
   -1.8757   -7.7944    0.0000 C   0  0
   -3.3373   -8.1089    0.0000 C   0  0
   -4.3620   -6.9866    0.0000 C   0  0
   -5.5359   -7.2354    0.0000 Cl  0  0
   -1.0725   -8.6860    0.0000 F   0  0
  2  1  1  0
  3  2  1  0
  8  4  1  0
  4  5  2  0
  5  6  1  0
  6  7  2  0
  7  9  1  0
  8  9  2  0
  9 10  1  0
 10 11  1  0
 11  2  1  0
  2  8  1  0
  5 12  1  0
 12 13  2  0
 13 14  1  0
 14 15  1  0
 15 16  2  0
 16 12  1  0
  7 17  1  0
 17 18  1  0
 18 22  1  0
 21 19  1  0
 19 20  1  0
 20 18  2  0
 21 22  2  0
 22 23  1  0
 23 24  2  0
 24 25  1  0
 25 26  2  0
 26 21  1  0
 26 27  1  0
 24 28  1  0
M  END
> <chembl_id>
CHEMBL3758862

$$$$

  SciTegic01161211242D

 34 37  0  0  0  0            999 V2000
    0.4319    0.6209    0.0000 C   0  0
    0.4307   -0.2065    0.0000 N   0  0
    1.1456   -0.6194    0.0000 C   0  0
    1.8620   -0.2060    0.0000 N   0  0
    1.8591    0.6245    0.0000 C   0  0
    1.1438    1.0336    0.0000 C   0  0
    2.5708    1.0417    0.0000 N   0  0
    3.2880    0.6339    0.0000 C   0  0
    3.9997    1.0511    0.0000 C   0  0
    4.7169    0.6433    0.0000 C   0  0
    5.4287    1.0605    0.0000 N   0  0
    6.1458    0.6527    0.0000 C   0  0
    6.8576    1.0699    0.0000 O   0  0
    6.1375   -0.1708    0.0000 C   0  0
    5.7120   -1.4340    0.0000 C   0  0
    6.5367   -1.4410    0.0000 C   0  0
    6.7969   -0.6586    0.0000 C   0  0
    1.1620   -1.7652    0.0000 N   0  0
    1.8708   -2.1750    0.0000 C   0  0
    1.8676   -2.9948    0.0000 C   0  0
    2.5756   -3.4045    0.0000 C   0  0
    3.2858   -2.9955    0.0000 C   0  0
    3.2837   -2.1725    0.0000 C   0  0
    2.5751   -1.7665    0.0000 C   0  0
    5.4025   -0.6098    0.0000 S   0  0
    3.9970   -1.7580    0.0000 N   0  0
    4.7126   -2.1684    0.0000 C   0  0
    5.3634   -1.8454    0.0000 O   0  0
    4.7083   -2.9917    0.0000 N   0  0
    4.0387   -3.4712    0.0000 C   0  0
    4.2892   -4.2565    0.0000 C   0  0
    5.1136   -4.2595    0.0000 C   0  0
    5.3699   -3.4761    0.0000 C   0  0
    1.1413    1.8586    0.0000 I   0  0
 15 16  2  0
 16 17  1  0
 17 14  2  0
  3 18  1  0
  8  9  1  0
 18 19  1  0
  4  5  1  0
 19 20  2  0
  9 10  1  0
 20 21  1  0
  2  3  1  0
 21 22  2  0
 10 11  1  0
 22 23  1  0
  5  6  2  0
 23 24  2  0
 24 19  1  0
 11 12  1  0
  6  1  1  0
 23 26  1  0
 12 13  2  0
 26 27  1  0
  1  2  2  0
 27 28  2  0
 12 14  1  0
 27 29  1  0
 30 31  1  0
 25 15  1  0
  5  7  1  0
  3  4  2  0
  7  8  1  0
 29 30  1  0
 31 32  1  0
 32 33  1  0
 33 29  1  0
 14 25  1  0
  6 34  1  0
M  END
> <chembl_id>
CHEMBL577784

$$$$

  SciTegic12121614122D

 41 45  0  0  0  0            999 V2000
   -1.2913    7.5063    0.0000 C   0  0
   -2.5882    8.2616    0.0000 C   0  0
   -2.5845    9.4615    0.0000 C   0  0
   -0.2500    8.1028    0.0000 O   0  0
   -1.2959    6.0055    0.0000 N   0  0
    0.0011    5.2503    0.0000 C   0  0
   -0.0014    3.7503    0.0000 C   0  0
    1.2964    2.9980    0.0000 C   0  0
    2.5967    3.7460    0.0000 C   0  0
    2.5992    5.2460    0.0000 C   0  0
    1.3014    5.9981    0.0000 C   0  0
   -2.6111    0.7486    0.0000 C   0  0
   -1.2964    1.4973    0.0000 N   0  0
    0.0000    0.7486    0.0000 C   0  0
    0.0000   -0.7486    0.0000 C   0  0
   -1.2964   -1.4973    0.0000 C   0  0
   -2.6111   -0.7486    0.0000 N   0  0
    1.2964   -1.4973    0.0000 C   0  0
    2.5929   -0.7486    0.0000 C   0  0
    2.5929    0.7486    0.0000 C   0  0
    1.2964    1.4973    0.0000 N   0  0
    3.6321    1.3486    0.0000 O   0  0
   -3.9122    1.4966    0.0000 N   0  0
   -5.2109    0.7445    0.0000 C   0  0
   -6.5125    1.4901    0.0000 C   0  0
   -7.8091    0.7359    0.0000 C   0  0
   -7.8042   -0.7641    0.0000 C   0  0
   -6.5027   -1.5098    0.0000 C   0  0
   -5.2061   -0.7556    0.0000 C   0  0
   -9.1014   -1.5188    0.0000 N   0  0
  -10.4041   -0.7752    0.0000 C   0  0
  -11.6995   -1.5315    0.0000 C   0  0
  -11.6922   -3.0315    0.0000 N   0  0
  -10.3895   -3.7751    0.0000 C   0  0
   -9.0942   -3.0188    0.0000 C   0  0
  -12.7285   -3.6365    0.0000 C   0  0
   -6.5206    2.9910    0.0000 O   0  0
   -7.5627    3.5860    0.0000 C   0  0
    1.2995   -2.9981    0.0000 C   0  0
    2.3396   -3.5967    0.0000 C   0  0
    0.2613   -3.5999    0.0000 C   0  0
  1  2  1  0
  2  3  2  0
  1  4  2  0
  1  5  1  0
  6  7  1  0
  7  8  2  0
  8  9  1  0
  9 10  2  0
 10 11  1  0
  6 11  2  0
 12 13  1  0
 13 14  2  0
 14 15  1  0
 15 16  2  0
 16 17  1  0
 12 17  2  0
 18 19  2  0
 19 20  1  0
 20 21  1  0
 14 21  1  0
 15 18  1  0
 20 22  2  0
 24 25  1  0
 25 26  2  0
 26 27  1  0
 27 28  2  0
 28 29  1  0
 24 29  2  0
 30 31  1  0
 31 32  1  0
 32 33  1  0
 33 34  1  0
 34 35  1  0
 30 35  1  0
 33 36  1  0
 27 30  1  0
 37 38  1  0
 25 37  1  0
 23 24  1  0
 12 23  1  0
 39 40  1  0
 39 41  1  0
 18 39  1  0
  8 21  1  0
  5  6  1  0
M  END
> <chembl_id>
CHEMBL3754040

$$$$

  SciTegic09081514182D

 31 32  0  0  0  0            999 V2000
    1.2990   -0.7500    0.0000 C   0  0
    1.2990    0.7500    0.0000 C   0  0
    0.0000    1.5000    0.0000 C   0  0
   -1.2990    0.7500    0.0000 C   0  0
   -1.2990   -0.7500    0.0000 C   0  0
    0.0000   -1.5000    0.0000 C   0  0
   -2.5972   -1.5031    0.0000 C   0  0
   -2.5951   -3.0039    0.0000 C   0  0
   -3.8933   -3.7570    0.0000 C   0  0
   -3.8912   -5.2578    0.0000 C   0  0
   -4.9336   -3.1588    0.0000 O   0  0
   -5.1894   -6.0109    0.0000 C   0  0
   -5.1872   -7.5117    0.0000 C   0  0
   -6.2296   -5.4127    0.0000 O   0  0
   -6.4854   -8.2648    0.0000 C   0  0
   -6.4833   -9.7657    0.0000 C   0  0
   -7.7797  -10.5203    0.0000 C   0  0
   -7.7745  -12.0202    0.0000 C   0  0
   -6.4729  -12.7657    0.0000 C   0  0
   -5.1764  -12.0112    0.0000 C   0  0
   -5.1816  -10.5113    0.0000 C   0  0
    2.5973   -1.5031    0.0000 O   0  0
    2.5972    1.5031    0.0000 O   0  0
   -6.4708  -14.2666    0.0000 O   0  0
    2.5956   -2.7031    0.0000 C   0  0
   -3.8726  -12.7545    0.0000 O   0  0
    2.5955    2.7031    0.0000 C   0  0
   -7.5088  -14.8687    0.0000 C   0  0
   -2.8363  -12.1494    0.0000 C   0  0
   -2.5973    1.5031    0.0000 O   0  0
   -2.5956    2.7031    0.0000 C   0  0
  1  2  2  0
  2  3  1  0
  3  4  2  0
  4  5  1  0
  5  6  2  0
  6  1  1  0
  5  7  1  0
  7  8  2  0
  8  9  1  0
  9 10  2  0
  9 11  1  0
 10 12  1  0
 12 13  1  0
 12 14  2  0
 13 15  2  0
 15 16  1  0
 16 17  2  0
 17 18  1  0
 18 19  2  0
 19 20  1  0
 20 21  2  0
 21 16  1  0
  1 22  1  0
  2 23  1  0
 19 24  1  0
 22 25  1  0
 20 26  1  0
 23 27  1  0
 24 28  1  0
 26 29  1  0
  4 30  1  0
 30 31  1  0
M  END
> <chembl_id>
CHEMBL3402848

$$$$

  SciTegic06051313552D

 27 31  0  0  0  0            999 V2000
    0.7580   -4.0818    0.0000 C   0  0
    0.7568   -4.9013    0.0000 C   0  0
    1.4649   -5.3103    0.0000 C   0  0
    2.1746   -4.9009    0.0000 C   0  0
    2.1718   -4.0781    0.0000 C   0  0
    1.4631   -3.6729    0.0000 C   0  0
    2.8524   -3.6260    0.0000 C   0  0
    3.6197   -3.9072    0.0000 C   0  0
    4.1242   -3.2644    0.0000 C   0  0
    3.6683   -2.5864    0.0000 N   0  0
    2.8828   -2.8094    0.0000 N   0  0
    4.0739   -1.8770    0.0000 C   0  0
    4.9387   -3.2945    0.0000 C   0  0
    6.1847   -2.6312    0.0000 C   0  0
    5.3701   -2.6044    0.0000 C   0  0
    4.8889   -1.8765    0.0000 C   0  0
    5.2944   -1.1679    0.0000 C   0  0
    4.8827   -0.4610    0.0000 C   0  0
    4.0613   -0.4671    0.0000 C   0  0
    3.6595   -1.1763    0.0000 C   0  0
    5.3207   -4.0154    0.0000 C   0  0
    6.5698   -3.3543    0.0000 C   0  0
    6.1358   -4.0464    0.0000 C   0  0
    6.5182   -4.7662    0.0000 C   0  0
    7.3343   -4.7951    0.0000 C   0  0
    7.7666   -4.0982    0.0000 C   0  0
    7.3818   -3.3813    0.0000 C   0  0
  1  2  2  0
  2  3  1  0
  3  4  2  0
  4  5  1  0
  5  6  2  0
  6  1  1  0
  7  8  1  0
  8  9  1  0
  9 10  1  0
 10 11  1  0
 11  7  2  0
  5  7  1  0
 10 12  1  0
 13 21  2  0
 22 14  1  0
 14 15  2  0
 15 13  1  0
  9 13  1  0
 12 16  2  0
 16 17  1  0
 17 18  2  0
 18 19  1  0
 19 20  2  0
 20 12  1  0
 23 21  1  0
 22 23  1  0
 23 24  2  0
 24 25  1  0
 25 26  2  0
 26 27  1  0
 27 22  2  0
M  END
> <chembl_id>
CHEMBL2325095

$$$$

  SciTegic12201611502D

 28 31  0  0  0  0            999 V2000
   -2.1332   -2.2973    0.0000 N   0  0
   -3.4277   -1.5498    0.0000 C   0  0
   -3.4277    0.0000    0.0000 N   0  0
   -2.1332    0.6928    0.0000 C   0  0
   -0.8205    0.0000    0.0000 C   0  0
    0.4558    0.6928    0.0000 C   0  0
    1.7503    0.0000    0.0000 C   0  0
    1.7503   -1.5498    0.0000 C   0  0
    0.4558   -2.2973    0.0000 C   0  0
   -0.8205   -1.5498    0.0000 C   0  0
    0.4558    2.1879    0.0000 O   0  0
    3.0631    0.6928    0.0000 O   0  0
    3.0631    2.1879    0.0000 C   0  0
    1.7503    2.9537    0.0000 C   0  0
   -2.1454    2.1947    0.0000 N   0  0
    3.0410   -2.3153    0.0000 O   0  0
    3.0239   -3.8160    0.0000 C   0  0
    4.3146   -4.5820    0.0000 C   0  0
    4.2976   -6.0827    0.0000 O   0  0
    5.3296   -6.6951    0.0000 C   0  0
   -3.4508    2.9353    0.0000 C   0  0
   -3.4653    4.4352    0.0000 C   0  0
   -4.7714    5.1728    0.0000 C   0  0
   -6.0632    4.4104    0.0000 C   0  0
   -6.0489    2.9104    0.0000 C   0  0
   -4.7427    2.1729    0.0000 C   0  0
   -4.7858    6.6735    0.0000 C   0  0
   -4.7973    7.8735    0.0000 C   0  0
  1  2  1  0
  2  3  2  0
  3  4  1  0
  4  5  2  0
  5  6  1  0
  6  7  2  0
  7  8  1  0
  8  9  2  0
  9 10  1  0
  1 10  2  0
  5 10  1  0
 12 13  1  0
 13 14  1  0
 11 14  1  0
  6 11  1  0
  7 12  1  0
  4 15  1  0
 17 18  1  0
 16 17  1  0
 19 20  1  0
 18 19  1  0
  8 16  1  0
 21 22  1  0
 22 23  2  0
 23 24  1  0
 24 25  2  0
 25 26  1  0
 21 26  2  0
 15 21  1  0
 23 27  1  0
 27 28  3  0
M  END
> <chembl_id>
CHEMBL3805461

$$$$

  SciTegic08011209522D

 41 46  0  0  0  0            999 V2000
    5.9444    2.1000    0.0000 N   0  0
    5.9432    1.2727    0.0000 C   0  0
    6.6581    0.8598    0.0000 N   0  0
    6.6563    2.5128    0.0000 C   0  0
    7.3716    2.1037    0.0000 C   0  0
    7.3751    1.2706    0.0000 C   0  0
    8.0942    0.8593    0.0000 N   0  0
    8.8146    1.2765    0.0000 C   0  0
    8.8112    2.1096    0.0000 N   0  0
    8.0874    2.5255    0.0000 C   0  0
    8.0982    0.0377    0.0000 C   0  0
    7.3832   -0.3761    0.0000 C   0  0
    7.3851   -1.2003    0.0000 C   0  0
    8.1013   -1.6117    0.0000 C   0  0
    8.8170   -1.1928    0.0000 C   0  0
    8.8116   -0.3700    0.0000 C   0  0
    5.2284    0.8607    0.0000 N   0  0
    5.2278    0.0357    0.0000 C   0  0
    4.5129   -0.3746    0.0000 C   0  0
    4.5119   -1.1989    0.0000 C   0  0
    5.2266   -1.6128    0.0000 C   0  0
    5.9437   -1.1964    0.0000 C   0  0
    5.9412   -0.3735    0.0000 C   0  0
    9.5302    0.8659    0.0000 O   0  0
    9.5340   -1.6009    0.0000 N   0  0
    9.5392   -2.4258    0.0000 C   0  0
   10.2562   -2.8339    0.0000 C   0  0
    8.8273   -2.8428    0.0000 O   0  0
   10.2614   -3.6589    0.0000 C   0  0
    5.2270   -2.4378    0.0000 N   0  0
    9.5244    2.5243    0.0000 C   0  0
    4.5101   -2.8474    0.0000 C   0  0
    4.5086   -3.6688    0.0000 C   0  0
    5.2214   -4.0847    0.0000 N   0  0
    5.9375   -3.6731    0.0000 C   0  0
    5.9407   -2.8455    0.0000 C   0  0
    5.2187   -4.9097    0.0000 C   0  0
    3.7992    0.0392    0.0000 O   0  0
    3.8007    0.8642    0.0000 C   0  0
   10.3455    2.5230    0.0000 C   0  0
    9.9308    3.2362    0.0000 C   0  0
  7  8  1  0
 19 20  1  0
  8  9  1  0
 20 21  2  0
  9 10  1  0
 21 22  1  0
  5  6  1  0
 22 23  2  0
 23 18  1  0
  8 24  2  0
 11 12  2  0
 15 25  1  0
  2  3  1  0
 25 26  1  0
 12 13  1  0
 26 27  1  0
  3  6  2  0
 26 28  2  0
 13 14  2  0
 27 29  2  0
  1  2  2  0
 21 30  1  0
 14 15  1  0
  9 31  1  0
 30 32  1  0
  5  4  2  0
 15 16  2  0
 16 11  1  0
  7 11  1  0
  4  1  1  0
 30 36  1  0
 32 33  1  0
 33 34  1  0
 34 35  1  0
 35 36  1  0
  2 17  1  0
 34 37  1  0
  5 10  1  0
 19 38  1  0
 17 18  1  0
 38 39  1  0
 40 31  1  0
 41 40  1  0
 31 41  1  0
  6  7  1  0
 18 19  2  0
M  END
> <chembl_id>
CHEMBL2029435

$$$$

  SciTegic12091614152D

 42 46  0  0  0  0            999 V2000
    6.9922    8.9442    0.0000 C   0  0
    7.4572   10.3704    0.0000 C   0  0
    6.4546   11.4862    0.0000 C   0  0
    4.9871   11.1758    0.0000 C   0  0
    4.5221    9.7497    0.0000 C   0  0
    5.5246    8.6340    0.0000 C   0  0
    7.9930    7.8258    0.0000 N   0  0
    6.9170   12.9140    0.0000 N   0  0
    5.5870    4.6698    0.0000 C   0  0
    6.0571    6.0943    0.0000 N   0  0
    7.5257    6.3996    0.0000 C   0  0
    8.5244    5.2803    0.0000 C   0  0
    8.0544    3.8559    0.0000 C   0  0
    6.5858    3.5506    0.0000 N   0  0
    4.1182    4.3614    0.0000 N   0  0
    3.6500    2.9355    0.0000 N   0  0
    2.1812    2.6271    0.0000 C   0  0
    1.7138    1.2033    0.0000 C   0  0
    9.6993    5.5245    0.0000 Cl  0  0
    5.9123   14.0290    0.0000 C   0  0
    4.7387   13.7787    0.0000 O   0  0
    6.3747   15.4568    0.0000 C   0  0
    5.3700   16.5718    0.0000 C   0  0
    5.8324   17.9996    0.0000 C   0  0
    4.8277   19.1145    0.0000 N   0  0
    5.1974   20.2562    0.0000 C   0  0
    3.6541   18.8642    0.0000 C   0  0
    1.7138   -1.2033    0.0000 N   0  0
    2.5889    0.0182    0.0000 C   0  0
    0.2917   -0.7475    0.0000 C   0  0
    0.2917    0.7475    0.0000 C   0  0
   -1.0028    1.5132    0.0000 C   0  0
   -2.3155    0.7475    0.0000 C   0  0
   -2.3155   -0.7475    0.0000 C   0  0
   -1.0028   -1.5132    0.0000 C   0  0
    2.1855   -2.6254    0.0000 C   0  0
    3.6552   -2.9294    0.0000 C   0  0
    4.1295   -4.3524    0.0000 C   0  0
    5.5991   -4.6533    0.0000 C   0  0
    6.5944   -3.5310    0.0000 C   0  0
    6.1201   -2.1080    0.0000 C   0  0
    4.6506   -1.8071    0.0000 C   0  0
  1  2  1  0
  2  3  2  0
  3  4  1  0
  4  5  2  0
  5  6  1  0
  1  6  2  0
  1  7  1  0
  3  8  1  0
  9 10  1  0
 10 11  2  0
 11 12  1  0
 12 13  2  0
 13 14  1  0
  9 14  2  0
 15 16  1  0
 17 18  1  0
 16 17  2  0
  9 15  1  0
 12 19  1  0
  7 11  1  0
  8 20  1  0
 20 21  2  0
 20 22  1  0
 22 23  2  0
 23 24  1  0
 24 25  1  0
 25 26  1  0
 25 27  1  0
 18 31  1  0
 30 28  1  0
 28 29  1  0
 29 18  2  0
 30 31  2  0
 31 32  1  0
 32 33  2  0
 33 34  1  0
 34 35  2  0
 35 30  1  0
 28 36  1  0
 36 37  1  0
 37 38  2  0
 38 39  1  0
 39 40  2  0
 40 41  1  0
 41 42  2  0
 42 37  1  0
M  END
> <chembl_id>
CHEMBL3741219

$$$$

  SciTegic05301215442D

 21 23  0  0  1  0            999 V2000
   -3.2704   -0.5696    0.0000 O   0  0
   -3.2704   -3.8696    0.0000 O   0  0
   -1.8414   -0.5696    0.0000 O   0  0
   -4.6993   -0.5696    0.0000 O   0  0
   -4.6993   -3.8696    0.0000 O   0  0
   -0.4125   -1.3946    0.0000 O   0  0
   -0.4125   -3.0446    0.0000 O   0  0
   -2.5559   -1.8071    0.0000 C   0  0
   -2.5559   -2.6321    0.0000 C   0  0
   -3.9849   -1.8071    0.0000 C   0  0
   -3.9849   -2.6321    0.0000 C   0  0
   -3.2704   -1.3946    0.0000 C   0  0
   -3.2704   -3.0446    0.0000 C   0  0
   -1.8414   -1.3946    0.0000 C   0  0  2  0  0  0
   -4.6993   -1.3946    0.0000 C   0  0
   -4.6993   -3.0446    0.0000 C   0  0
   -1.1270   -1.8071    0.0000 C   0  0  2  0  0  0
   -1.8414   -3.0446    0.0000 C   0  0
   -1.1270   -2.6321    0.0000 C   0  0  2  0  0  0
   -5.4138   -1.8071    0.0000 C   0  0
   -5.4138   -2.6321    0.0000 C   0  0
  1 12  2  0
  2 13  2  0
 14  3  1  1
  4 15  1  0
  5 16  1  0
 17  6  1  1
 19  7  1  1
  8  9  2  0
  8 12  1  0
  8 14  1  0
  9 13  1  0
  9 18  1  0
 10 11  2  0
 10 12  1  0
 10 15  1  0
 11 13  1  0
 11 16  1  0
 14 17  1  0
 15 20  2  0
 16 21  2  0
 17 19  1  0
 18 19  1  0
 20 21  1  0
M  END
> <chembl_id>
CHEMBL1987813

$$$$

  SciTegic12201611502D

 30 33  0  0  0  0            999 V2000
   -2.1332   -2.2973    0.0000 N   0  0
   -3.4277   -1.5498    0.0000 C   0  0
   -3.4277    0.0000    0.0000 N   0  0
   -2.1332    0.6928    0.0000 C   0  0
   -0.8205    0.0000    0.0000 C   0  0
    0.4558    0.6928    0.0000 C   0  0
    1.7503    0.0000    0.0000 C   0  0
    1.7503   -1.5498    0.0000 C   0  0
    0.4558   -2.2973    0.0000 C   0  0
   -0.8205   -1.5498    0.0000 C   0  0
    0.4558    2.1879    0.0000 O   0  0
    3.0631    0.6928    0.0000 O   0  0
    3.0631    2.1879    0.0000 C   0  0
    1.7503    2.9537    0.0000 C   0  0
   -2.1454    2.1947    0.0000 N   0  0
   -3.4508    2.9353    0.0000 C   0  0
   -3.4653    4.4352    0.0000 C   0  0
   -4.7714    5.1728    0.0000 C   0  0
   -6.0632    4.4104    0.0000 C   0  0
   -6.0489    2.9104    0.0000 C   0  0
   -4.7427    2.1729    0.0000 C   0  0
   -4.7827    6.6736    0.0000 N   0  3
   -3.7484    7.2820    0.0000 O   0  0
   -5.8266    7.2654    0.0000 O   0  5
   -7.3716    5.1456    0.0000 O   0  0
   -8.4042    4.5342    0.0000 C   0  0
    3.0410   -2.3153    0.0000 O   0  0
    3.0239   -3.8160    0.0000 C   0  0
    4.0559   -4.4284    0.0000 C   0  0
    1.9778   -4.4039    0.0000 C   0  0
  1  2  1  0
  2  3  2  0
  3  4  1  0
  4  5  2  0
  5  6  1  0
  6  7  2  0
  7  8  1  0
  8  9  2  0
  9 10  1  0
  1 10  2  0
  5 10  1  0
 12 13  1  0
 13 14  1  0
 11 14  1  0
  6 11  1  0
  7 12  1  0
  4 15  1  0
 16 17  1  0
 17 18  2  0
 18 19  1  0
 19 20  2  0
 20 21  1  0
 16 21  2  0
 22 23  2  0
 22 24  1  0
 18 22  1  0
 25 26  1  0
 19 25  1  0
 15 16  1  0
 28 29  1  0
 28 30  1  0
 27 28  1  0
  8 27  1  0
M  CHG  2  22   1  24  -1
M  END
> <chembl_id>
CHEMBL3805475

$$$$

  SciTegic02271514372D

 28 32  0  0  0  0            999 V2000
    7.7185   -7.8422    0.0000 C   0  0
    8.4330   -7.4297    0.0000 C   0  0
    9.1475   -7.8422    0.0000 N   0  0
   12.0054   -7.8422    0.0000 N   0  0
   12.7198   -7.4297    0.0000 C   0  0
   12.7198   -6.6047    0.0000 N   0  0
   12.0054   -6.1922    0.0000 C   0  0
   11.2909   -6.6047    0.0000 C   0  0
   10.5764   -6.1922    0.0000 C   0  0
    9.8619   -6.6047    0.0000 C   0  0
    9.8619   -7.4297    0.0000 C   0  0
   10.5764   -7.8422    0.0000 C   0  0
   11.2909   -7.4297    0.0000 C   0  0
   13.3329   -6.0527    0.0000 N   0  0
   12.9974   -5.2990    0.0000 C   0  0
   12.1769   -5.3853    0.0000 N   0  0
   13.4343   -7.8422    0.0000 C   0  0
   16.1908   -6.0527    0.0000 O   0  0
   15.8553   -5.2990    0.0000 C   0  0
   15.0348   -5.3853    0.0000 O   0  0
   14.8632   -6.1922    0.0000 C   0  0
   15.5777   -6.6047    0.0000 C   0  0
   14.1488   -6.6047    0.0000 C   0  0
   14.1488   -7.4297    0.0000 C   0  0
   14.8632   -7.8422    0.0000 C   0  0
   15.5777   -7.4297    0.0000 C   0  0
   13.4099   -4.5846    0.0000 N   0  0
    7.0041   -7.4297    0.0000 O   0  0
  1  2  1  0
  4  5  2  0
  5  6  1  0
  6  7  1  0
  7  8  1  0
  8  9  1  0
  9 10  2  0
 10 11  1  0
 11 12  2  0
 12 13  1  0
  4 13  1  0
  8 13  2  0
 14 15  2  0
 15 16  1  0
  6 14  1  0
  7 16  2  0
 18 19  1  0
 19 20  1  0
 20 21  1  0
 21 22  1  0
 18 22  1  0
 23 24  1  0
 24 25  2  0
 25 26  1  0
 22 26  2  0
 21 23  2  0
 17 24  1  0
  5 17  1  0
 15 27  1  0
  3 11  1  0
  2  3  1  0
  1 28  1  0
M  END
> <chembl_id>
CHEMBL3309998

$$$$

  SciTegic12131615502D

 44 50  0  0  0  0            999 V2000
    3.7345    1.5436    0.0000 C   0  0
    4.8300    2.8133    0.0000 C   0  0
    3.7345    0.0000    0.0000 C   0  0
    6.1246    2.2656    0.0000 C   0  0
    5.2034   -0.5726    0.0000 C   0  0
    6.1246    0.5726    0.0000 C   0  0
    2.5893   -0.5726    0.0000 C   0  0
    3.5602    0.5726    0.0000 C   0  0
    3.5602    2.2656    0.0000 C   0  0
    5.0291    0.0249    0.0000 C   0  0
   -1.5951   -0.0674    0.0000 C   0  0
   -2.9758    0.5191    0.0000 C   0  0
   -3.1582    2.0079    0.0000 C   0  0
   -1.9600    2.9103    0.0000 C   0  0
   -0.5794    2.3239    0.0000 C   0  0
   -0.3969    0.8350    0.0000 C   0  0
   -4.5383    2.5976    0.0000 N   0  0
   -5.0883    7.0595    0.0000 N   0  0
   -3.6914    6.4784    0.0000 C   0  0
   -3.5071    4.9925    0.0000 N   0  0
   -4.7187    4.0875    0.0000 C   0  0
   -6.0984    4.6711    0.0000 C   0  0
   -7.2928    3.7685    0.0000 C   0  0
   -8.6715    4.3519    0.0000 C   0  0
   -8.8558    5.8377    0.0000 C   0  0
   -7.6614    6.7403    0.0000 C   0  0
   -6.2827    6.1569    0.0000 C   0  0
   -9.8671    3.4447    0.0000 O   0  0
   -9.6803    1.9555    0.0000 C   0  0
  -10.8759    1.0483    0.0000 C   0  0
  -10.6890   -0.4408    0.0000 C   0  0
  -14.2783   -3.1565    0.0000 O   0  0
  -12.8968   -3.7409    0.0000 C   0  0
  -11.7000   -2.8366    0.0000 C   0  0
  -11.8846   -1.3480    0.0000 N   0  0
  -13.2662   -0.7637    0.0000 C   0  0
  -14.4630   -1.6679    0.0000 C   0  0
  -10.2369    6.4253    0.0000 O   0  0
  -10.3829    7.6164    0.0000 C   0  0
    0.9857    0.2510    0.0000 C   0  0
    2.1833    1.1556    0.0000 N   0  0
    1.1337   -0.9398    0.0000 O   0  0
   -1.4127   -1.5571    0.0000 C   0  0
   -1.2668   -2.7482    0.0000 N   0  0
  1  2  1  0
  1  3  1  0
  2  4  1  0
  3  5  1  0
  4  6  1  0
  5  6  1  0
  7  8  1  0
  3  7  1  0
  2  9  1  0
  6 10  1  0
 10  8  1  0
  8  9  1  0
 11 12  1  0
 12 13  2  0
 13 14  1  0
 14 15  2  0
 15 16  1  0
 11 16  2  0
 18 19  1  0
 19 20  2  0
 20 21  1  0
 21 22  2  0
 22 23  1  0
 23 24  2  0
 24 25  1  0
 25 26  2  0
 26 27  1  0
 18 27  2  0
 22 27  1  0
 29 30  1  0
 30 31  1  0
 28 29  1  0
 32 33  1  0
 33 34  1  0
 34 35  1  0
 35 36  1  0
 36 37  1  0
 32 37  1  0
 31 35  1  0
 24 28  1  0
 38 39  1  0
 25 38  1  0
 17 21  1  0
 13 17  1  0
 16 40  1  0
 40 41  1  0
 40 42  2  0
 41  8  1  0
 43 44  3  0
 11 43  1  0
M  END
> <chembl_id>
CHEMBL3765425

$$$$

  SciTegic11131810062D

 23 25  0  0  0  0            999 V2000
    5.1862    2.7091    0.0000 Br  0  0
    5.1903    1.5091    0.0000 C   0  0
    6.4920    0.7636    0.0000 C   0  0
    6.4972   -0.7364    0.0000 C   0  0
    5.2007   -1.4909    0.0000 C   0  0
    3.8990   -0.7455    0.0000 C   0  0
    2.6003   -1.4977    0.0000 N   0  0
    1.2990   -0.7500    0.0000 C   0  0
    1.2990    0.7500    0.0000 N   0  0
    0.0000    1.5000    0.0000 C   0  0
   -1.2990    0.7500    0.0000 N   0  0
   -1.2990   -0.7500    0.0000 C   0  0
   -2.5981   -1.5000    0.0000 C   0  0
   -2.5981   -3.0000    0.0000 C   0  0
   -1.2990   -3.7500    0.0000 C   0  0
   -1.2959   -5.2508    0.0000 N   0  0
    0.0049   -5.9994    0.0000 C   0  0
    1.0431   -5.3976    0.0000 O   0  0
    0.0080   -7.5002    0.0000 C   0  0
    1.0481   -8.0987    0.0000 C   0  0
    0.0000   -3.0000    0.0000 C   0  0
    0.0000   -1.5000    0.0000 C   0  0
    3.8939    0.7546    0.0000 C   0  0
  1  2  1  0
  2  3  2  0
  3  4  1  0
  4  5  2  0
  5  6  1  0
  6  7  1  0
  7  8  1  0
  8  9  2  0
  9 10  1  0
 10 11  2  0
 11 12  1  0
 12 13  2  0
 13 14  1  0
 14 15  2  0
 15 16  1  0
 16 17  1  0
 17 18  2  0
 17 19  1  0
 19 20  2  0
 15 21  1  0
 21 22  2  0
 22  8  1  0
 22 12  1  0
  6 23  2  0
 23  2  1  0
M  END
> <chembl_id>
CHEMBL285063

$$$$

  SciTegic12201615542D

 41 46  0  0  0  0            999 V2000
    1.4499    7.7742    0.0000 C   0  0
    0.5265    8.9573    0.0000 C   0  0
    0.9759   10.0700    0.0000 C   0  0
    2.6383    7.9411    0.0000 O   0  0
    0.8879    6.3826    0.0000 N   0  0
    1.8114    5.1995    0.0000 C   0  0
    1.2517    3.8078    0.0000 C   0  0
    2.1749    2.6315    0.0000 C   0  0
    3.6621    2.8384    0.0000 C   0  0
    4.2218    4.2301    0.0000 C   0  0
    3.2965    5.4106    0.0000 C   0  0
   -1.0028   -1.5132    0.0000 C   0  0
    0.2917   -0.7475    0.0000 C   0  0
    0.2917    0.7475    0.0000 C   0  0
   -1.0028    1.5132    0.0000 C   0  0
   -2.3155    0.7475    0.0000 C   0  0
   -2.3155   -0.7475    0.0000 C   0  0
    2.5889    0.0182    0.0000 C   0  0
    1.7138   -1.2033    0.0000 N   0  0
    1.7138    1.2033    0.0000 N   0  0
    4.0896    0.0290    0.0000 C   0  0
    4.9234    1.2700    0.0000 C   0  0
    4.7453   -1.3220    0.0000 N   0  0
    6.4199    1.1671    0.0000 N   0  0
    7.0791   -0.1803    0.0000 C   0  0
    6.2418   -1.4248    0.0000 C   0  0
    7.2286   -5.1568    0.0000 N   0  0
    8.5770   -4.4998    0.0000 N   0  0
    8.3688   -3.0143    0.0000 C   0  0
    6.9013   -2.7729    0.0000 C   0  0
    6.1870   -4.0774    0.0000 C   0  0
    6.9674   -6.6347    0.0000 C   0  0
    4.3957    2.3477    0.0000 N   0  0
    8.0374   -7.6789    0.0000 C   0  0
    7.6659   -9.1322    0.0000 C   0  0
    6.2216   -9.5371    0.0000 N   0  0
    5.1488   -8.4888    0.0000 C   0  0
    5.5202   -7.0355    0.0000 C   0  0
    5.8470  -10.9905    0.0000 C   0  0
    4.6911  -11.3128    0.0000 O   0  0
    6.7038  -11.8306    0.0000 C   0  0
  1  2  1  0
  2  3  2  0
  1  4  2  0
  1  5  1  0
  6  7  1  0
  7  8  2  0
  8  9  1  0
  9 10  2  0
 10 11  1  0
  6 11  2  0
 12 13  1  0
 13 14  2  0
 14 15  1  0
 15 16  2  0
 16 17  1  0
 12 17  2  0
 18 19  2  0
 18 20  1  0
 13 19  1  0
 14 20  1  0
 21 22  1  0
 21 23  2  0
 22 24  2  0
 24 25  1  0
 25 26  2  0
 23 26  1  0
 27 28  1  0
 28 29  2  0
 29 30  1  0
 30 31  2  0
 27 31  1  0
 27 32  1  0
 26 30  1  0
 22 33  1  0
 18 21  1  0
  8 20  1  0
  5  6  1  0
 32 34  1  0
 32 38  1  0
 34 35  1  0
 35 36  1  0
 36 37  1  0
 37 38  1  0
 36 39  1  0
 39 40  2  0
 39 41  1  0
M  END
> <chembl_id>
CHEMBL3815124

$$$$

  SciTegic08011209522D

 26 28  0  0  0  0            999 V2000
   -1.7862   -0.8250    0.0000 C   0  0
   -2.5006   -0.4125    0.0000 C   0  0
   -3.2151   -0.8250    0.0000 C   0  0
   -1.7862   -1.6500    0.0000 O   0  0
   -1.0717   -0.4125    0.0000 N   0  0
   -3.9296   -0.4125    0.0000 N   0  0
   -3.9296    0.4125    0.0000 C   0  0
   -4.6441   -0.8250    0.0000 C   0  0
    1.7862   -2.0625    0.0000 N   0  0
    2.5006   -1.6500    0.0000 C   0  0
    2.5006   -0.8250    0.0000 N   0  0
    1.7862   -0.4125    0.0000 C   0  0
    1.0717   -0.8250    0.0000 C   0  0
    0.3572   -0.4125    0.0000 C   0  0
   -0.3572   -0.8250    0.0000 C   0  0
   -0.3572   -1.6500    0.0000 C   0  0
    0.3572   -2.0625    0.0000 C   0  0
    1.0717   -1.6500    0.0000 C   0  0
    1.7862    0.4125    0.0000 N   0  0
    2.5006    0.8250    0.0000 C   0  0
    3.2151    0.4125    0.0000 C   0  0
    3.9296    0.8250    0.0000 C   0  0
    3.9296    1.6500    0.0000 C   0  0
    3.2151    2.0625    0.0000 C   0  0
    2.5006    1.6500    0.0000 C   0  0
    4.6441    0.4125    0.0000 Br  0  0
  1  2  1  0
  2  3  1  0
  1  4  2  0
  1  5  1  0
  6  7  1  0
  6  8  1  0
  3  6  1  0
  9 10  1  0
 10 11  2  0
 11 12  1  0
 12 13  2  0
 13 14  1  0
 14 15  2  0
 15 16  1  0
 16 17  2  0
 17 18  1  0
  9 18  2  0
 13 18  1  0
 19 20  1  0
 20 21  1  0
 21 22  2  0
 22 23  1  0
 23 24  2  0
 24 25  1  0
 20 25  2  0
 22 26  1  0
 12 19  1  0
  5 15  1  0
M  END
> <chembl_id>
CHEMBL2031297

$$$$

  CDK    9/16/09,10:2

 40 43  0  0  0  0  0  0  0  0999 V2000
   11.7731  -18.5490    0.0000 C   0  0  0  0  0  0  0  0  0  0  0  0
   11.7719  -19.3765    0.0000 C   0  0  0  0  0  0  0  0  0  0  0  0
   12.4848  -19.7895    0.0000 C   0  0  0  0  0  0  0  0  0  0  0  0
   12.4828  -18.1361    0.0000 C   0  0  0  0  0  0  0  0  0  0  0  0
   13.2010  -18.5449    0.0000 C   0  0  0  0  0  0  0  0  0  0  0  0
   13.2021  -19.3723    0.0000 C   0  0  0  0  0  0  0  0  0  0  0  0
   13.9180  -19.7833    0.0000 N   0  0  0  0  0  0  0  0  0  0  0  0
   14.6334  -19.3680    0.0000 C   0  0  0  0  0  0  0  0  0  0  0  0
   14.6283  -18.5375    0.0000 C   0  0  0  0  0  0  0  0  0  0  0  0
   13.9119  -18.1303    0.0000 C   0  0  0  0  0  0  0  0  0  0  0  0
   13.9071  -17.3053    0.0000 N   0  0  0  0  0  0  0  0  0  0  0  0
   14.6193  -16.8887    0.0000 C   0  0  0  0  0  0  0  0  0  0  0  0
   15.3315  -17.3008    0.0000 C   0  0  0  0  0  0  0  0  0  0  0  0
   16.0433  -16.8850    0.0000 C   0  0  0  0  0  0  0  0  0  0  0  0
   16.0391  -16.0591    0.0000 C   0  0  0  0  0  0  0  0  0  0  0  0
   15.3172  -15.6509    0.0000 C   0  0  0  0  0  0  0  0  0  0  0  0
   14.6085  -16.0690    0.0000 C   0  0  0  0  0  0  0  0  0  0  0  0
   16.7598  -17.2939    0.0000 Cl  0  0  0  0  0  0  0  0  0  0  0  0
   16.7506  -15.6416    0.0000 O   0  0  0  0  0  0  0  0  0  0  0  0
   17.4680  -16.0492    0.0000 C   0  0  0  0  0  0  0  0  0  0  0  0
   18.1796  -15.6316    0.0000 C   0  0  0  0  0  0  0  0  0  0  0  0
   18.8938  -16.0425    0.0000 C   0  0  0  0  0  0  0  0  0  0  0  0
   19.6049  -15.6257    0.0000 C   0  0  0  0  0  0  0  0  0  0  0  0
   19.5996  -14.7999    0.0000 C   0  0  0  0  0  0  0  0  0  0  0  0
   18.8772  -14.3926    0.0000 C   0  0  0  0  0  0  0  0  0  0  0  0
   18.1690  -14.8117    0.0000 N   0  0  0  0  0  0  0  0  0  0  0  0
   15.3354  -18.1205    0.0000 C   0  0  0  0  0  0  0  0  0  0  0  0
   16.0472  -17.7035    0.0000 N   0  0  0  0  0  0  0  0  0  0  0  0
   11.0583  -18.1370    0.0000 N   0  0  0  0  0  0  0  0  0  0  0  0
   11.0568  -19.7880    0.0000 O   0  0  0  0  0  0  0  0  0  0  0  0
   11.0556  -20.6130    0.0000 C   0  0  0  0  0  0  0  0  0  0  0  0
   10.3406  -21.0246    0.0000 C   0  0  0  0  0  0  0  0  0  0  0  0
   10.3442  -18.5502    0.0000 C   0  0  0  0  0  0  0  0  0  0  0  0
    9.6294  -18.1382    0.0000 C   0  0  0  0  0  0  0  0  0  0  0  0
   10.3449  -19.3752    0.0000 O   0  0  0  0  0  0  0  0  0  0  0  0
    8.9153  -18.5513    0.0000 C   0  0  0  0  0  0  0  0  0  0  0  0
    8.2004  -18.1394    0.0000 C   0  0  0  0  0  0  0  0  0  0  0  0
    7.4862  -18.5525    0.0000 N   0  0  0  0  0  0  0  0  0  0  0  0
    6.7715  -18.1406    0.0000 C   0  0  0  0  0  0  0  0  0  0  0  0
    7.4870  -19.3775    0.0000 C   0  0  0  0  0  0  0  0  0  0  0  0
 15 19  1  0  0  0  0 
  4  1  1  0  0  0  0 
 19 20  1  0  0  0  0 
  9 10  2  0  0  0  0 
 20 21  1  0  0  0  0 
 10  5  1  0  0  0  0 
 21 22  2  0  0  0  0 
 22 23  1  0  0  0  0 
 10 11  1  0  0  0  0 
 23 24  2  0  0  0  0 
  2  3  1  0  0  0  0 
 24 25  1  0  0  0  0 
 11 12  1  0  0  0  0 
 25 26  2  0  0  0  0 
 26 21  1  0  0  0  0 
  5  6  1  0  0  0  0 
 12 13  2  0  0  0  0 
 27 28  3  0  0  0  0 
  9 27  1  0  0  0  0 
  3  6  2  0  0  0  0 
  1 29  1  0  0  0  0 
 13 14  1  0  0  0  0 
  2 30  1  0  0  0  0 
  6  7  1  0  0  0  0 
 30 31  1  0  0  0  0 
 14 15  2  0  0  0  0 
 31 32  1  0  0  0  0 
  1  2  2  0  0  0  0 
 29 33  1  0  0  0  0 
 15 16  1  0  0  0  0 
 33 34  1  0  0  0  0 
  7  8  2  0  0  0  0 
 33 35  2  0  0  0  0 
 16 17  2  0  0  0  0 
 34 36  2  0  0  0  0 
 17 12  1  0  0  0  0 
 36 37  1  0  0  0  0 
  5  4  2  0  0  0  0 
 37 38  1  0  0  0  0 
 14 18  1  0  0  0  0 
 38 39  1  0  0  0  0 
  8  9  1  0  0  0  0 
 38 40  1  0  0  0  0 
M  END
> <chembl_id>
CHEMBL180022

$$$$

  SciTegic12131615492D

 42 48  0  0  0  0            999 V2000
    1.9993    2.6466    0.0000 C   0  0
    0.6175    3.2323    0.0000 C   0  0
    0.4308    4.7207    0.0000 C   0  0
   -0.9515    5.3032    0.0000 C   0  0
   -2.1471    4.3975    0.0000 C   0  0
   -1.9605    2.9091    0.0000 C   0  0
   -0.5783    2.3265    0.0000 C   0  0
    2.9571    3.3696    0.0000 O   0  0
    2.1839    1.1572    0.0000 N   0  0
   -1.1412    6.7920    0.0000 N   0  0
   -5.2828    8.5411    0.0000 N   0  0
   -5.1057    7.0386    0.0000 C   0  0
   -3.7269    6.4550    0.0000 N   0  0
   -2.5251    7.3729    0.0000 C   0  0
   -2.7091    8.8596    0.0000 C   0  0
   -1.5144    9.7617    0.0000 C   0  0
   -1.6985   11.2474    0.0000 C   0  0
   -3.0774   11.8310    0.0000 C   0  0
   -4.2721   10.9289    0.0000 C   0  0
   -4.0880    9.4432    0.0000 C   0  0
   -0.4990   12.1494    0.0000 O   0  0
    0.8823   11.5624    0.0000 C   0  0
    2.0818   12.4645    0.0000 C   0  0
    3.4631   11.8775    0.0000 C   0  0
    7.0568   14.5875    0.0000 O   0  0
    7.2411   13.0988    0.0000 C   0  0
    6.0441   12.1949    0.0000 C   0  0
    4.6627   12.7795    0.0000 N   0  0
    4.4784   14.2682    0.0000 C   0  0
    5.6754   15.1722    0.0000 C   0  0
   -3.2649   13.3201    0.0000 O   0  0
   -4.3707   13.7862    0.0000 C   0  0
    3.5602    0.5726    0.0000 C   0  0
    3.7345    1.5436    0.0000 C   0  0
    3.7345    0.0000    0.0000 C   0  0
    4.8300    2.8133    0.0000 C   0  0
    2.5893   -0.5726    0.0000 C   0  0
    3.5602    2.2656    0.0000 C   0  0
    6.1246    2.2656    0.0000 C   0  0
    6.1246    0.5726    0.0000 C   0  0
    5.2034   -0.5726    0.0000 C   0  0
    5.0291    0.0249    0.0000 C   0  0
  1  2  1  0
  2  3  1  0
  3  4  2  0
  4  5  1  0
  5  6  2  0
  6  7  1  0
  2  7  2  0
  1  8  2  0
  1  9  1  0
 11 12  1  0
 12 13  2  0
 13 14  1  0
 14 15  2  0
 15 16  1  0
 16 17  2  0
 17 18  1  0
 18 19  2  0
 19 20  1  0
 11 20  2  0
 15 20  1  0
 22 23  1  0
 23 24  1  0
 21 22  1  0
 25 26  1  0
 26 27  1  0
 27 28  1  0
 28 29  1  0
 29 30  1  0
 25 30  1  0
 24 28  1  0
 17 21  1  0
 31 32  1  0
 18 31  1  0
 10 14  1  0
  4 10  1  0
  9 33  1  0
 34 35  1  0
 34 36  1  0
 35 37  1  0
 36 38  1  0
 37 33  1  0
 38 33  1  0
 39 40  1  0
 36 39  1  0
 35 41  1  0
 33 42  1  0
 42 40  1  0
 40 41  1  0
M  END
> <chembl_id>
CHEMBL3765263

$$$$

  SciTegic09261414462D

 31 33  0  0  0  0            999 V2000
   19.8022  -17.1472    0.0000 N   0  0
   20.5118  -16.7377    0.0000 C   0  0
   20.5090  -15.9151    0.0000 N   0  0
   19.8004  -15.5098    0.0000 C   0  0
   19.0941  -16.7382    0.0000 C   0  0
   19.0953  -15.9217    0.0000 C   0  0
   18.3192  -15.6682    0.0000 C   0  0
   17.8382  -16.3281    0.0000 C   0  0
   18.3172  -16.9893    0.0000 S   0  0
   19.7966  -14.6926    0.0000 N   0  0
   20.5024  -14.2808    0.0000 C   0  0
   21.2098  -14.6909    0.0000 C   0  0
   21.9152  -14.2798    0.0000 C   0  0
   21.9119  -13.4617    0.0000 C   0  0
   21.1973  -13.0565    0.0000 C   0  0
   20.4949  -13.4700    0.0000 C   0  0
   17.0210  -16.3269    0.0000 N   0  0
   16.6134  -15.6186    0.0000 C   0  0
   15.7962  -15.6174    0.0000 C   0  0
   17.0230  -14.9115    0.0000 O   0  0
   22.6171  -13.0489    0.0000 F   0  0
   22.6246  -14.6854    0.0000 Cl  0  0
   15.3886  -14.9091    0.0000 C   0  0
   14.5715  -14.9079    0.0000 C   0  0
   14.1639  -14.1996    0.0000 N   0  0
   14.5735  -13.4925    0.0000 C   0  0
   15.3907  -13.4937    0.0000 C   0  0
   15.8003  -12.7866    0.0000 S   0  0
   16.6175  -12.7878    0.0000 C   0  0
   15.0891  -12.3776    0.0000 O   0  0
   15.7949  -11.9690    0.0000 O   0  0
  5  1  1  0
  1  2  2  0
  2  3  1  0
  3  4  2  0
  4  6  1  0
  5  6  2  0
  6  7  1  0
  7  8  2  0
  8  9  1  0
  9  5  1  0
  4 10  1  0
 10 11  1  0
 11 12  2  0
 12 13  1  0
 13 14  2  0
 14 15  1  0
 15 16  2  0
 16 11  1  0
  8 17  1  0
 17 18  1  0
 18 19  1  0
 18 20  2  0
 14 21  1  0
 13 22  1  0
 19 23  2  0
 23 24  1  0
 24 25  1  0
 25 26  1  0
 26 27  1  0
 27 28  1  0
 28 29  1  0
 28 30  2  0
 28 31  2  0
M  END
> <chembl_id>
CHEMBL3233773

$$$$

  SciTegic12171313052D

 34 37  0  0  0  0            999 V2000
   14.9683  -18.1278    0.0000 C   0  0
   14.9672  -18.9551    0.0000 C   0  0
   15.6819  -19.3679    0.0000 C   0  0
   16.3983  -18.9546    0.0000 C   0  0
   16.3954  -18.1241    0.0000 C   0  0
   15.6801  -17.7151    0.0000 C   0  0
   15.6777  -16.8901    0.0000 N   0  0
   16.3909  -16.4756    0.0000 C   0  0
   17.1080  -16.8904    0.0000 N   0  0
   17.0980  -15.2405    0.0000 C   0  0
   16.3882  -15.6568    0.0000 N   0  0
   17.8187  -15.6506    0.0000 C   0  0
   17.8194  -16.4781    0.0000 C   0  0
   18.5325  -16.8889    0.0000 N   0  0
   19.2494  -16.4768    0.0000 C   0  0
   19.2486  -15.6492    0.0000 C   0  0
   18.5310  -15.2339    0.0000 N   0  0
   18.5337  -17.7112    0.0000 C   0  0
   17.8175  -18.1227    0.0000 C   0  0
   17.8168  -18.9469    0.0000 C   0  0
   18.5315  -19.3605    0.0000 C   0  0
   19.2485  -18.9438    0.0000 C   0  0
   19.2457  -18.1210    0.0000 C   0  0
   19.9636  -16.8895    0.0000 O   0  0
   19.9642  -19.3541    0.0000 N   0  0
   19.9667  -20.1790    0.0000 C   0  0
   20.6825  -20.5893    0.0000 O   0  0
   19.2535  -20.5937    0.0000 C   0  0
   18.5379  -20.1835    0.0000 C   0  0
   15.6823  -20.1879    0.0000 N   0  0
   14.9680  -20.6007    0.0000 C   0  0
   16.3969  -20.6001    0.0000 C   0  0
   16.3972  -21.4250    0.0000 C   0  0
   14.9684  -21.4257    0.0000 C   0  0
  1  2  2  0
  2  3  1  0
  3  4  2  0
  4  5  1  0
  5  6  2  0
  6  1  1  0
  6  7  1  0
  7  8  1  0
  8  9  2  0
  9 13  1  0
 12 10  1  0
 10 11  2  0
 11  8  1  0
 12 13  2  0
 12 17  1  0
 13 14  1  0
 14 15  1  0
 15 16  1  0
 16 17  2  0
 18 19  2  0
 19 20  1  0
 20 21  2  0
 21 22  1  0
 22 23  2  0
 23 18  1  0
 14 18  1  0
 15 24  2  0
 22 25  1  0
 25 26  1  0
 26 27  2  0
 26 28  1  0
 28 29  2  0
  3 30  1  0
 30 31  1  0
 30 32  1  0
 32 33  1  0
 31 34  1  0
M  END
> <chembl_id>
CHEMBL2437465

$$$$

  SciTegic12091611202D

 34 37  0  0  0  0            999 V2000
   -1.0028   -1.5132    0.0000 C   0  0
   -1.0028    1.5132    0.0000 C   0  0
   -2.3155    0.7475    0.0000 C   0  0
   -2.3155   -0.7475    0.0000 N   0  0
    0.2917    0.7475    0.0000 C   0  0
    0.2917   -0.7475    0.0000 C   0  0
    1.7138   -1.2033    0.0000 N   0  0
    2.5889    0.0182    0.0000 C   0  0
    1.7138    1.2033    0.0000 N   0  0
   -3.6217    1.4865    0.0000 N   0  0
   -4.9153    0.7255    0.0000 C   0  0
   -6.2219    1.4621    0.0000 N   0  0
   -7.5133    0.6990    0.0000 C   0  0
   -7.4980   -0.8010    0.0000 N   0  0
   -6.1914   -1.5377    0.0000 C   0  0
   -4.9001   -0.7745    0.0000 C   0  0
    2.1802    2.6275    0.0000 C   0  0  2  0  0  0
    3.3546    2.8738    0.0000 C   0  0
    1.1793    3.7458    0.0000 C   0  0
    1.5528    4.8862    0.0000 F   0  0
    0.3786    4.6396    0.0000 F   0  0
    0.0048    3.4995    0.0000 F   0  0
   -8.8205    1.4361    0.0000 N   0  0
   -8.8383    2.9360    0.0000 C   0  0
  -10.1461    3.6707    0.0000 C   0  0
  -11.4362    2.9055    0.0000 C   0  0  1  0  0  0
  -11.4185    1.4056    0.0000 C   0  0  1  0  0  0
  -10.1108    0.6709    0.0000 C   0  0
  -12.4506    0.7934    0.0000 F   0  0
  -12.7432    3.6432    0.0000 O   0  0
  -12.7556    4.8432    0.0000 C   0  0
    4.0872    0.0331    0.0000 C   0  0  1  0  0  0
    4.6973   -1.0002    0.0000 C   0  0
    4.6774    1.0780    0.0000 O   0  0
  1  6  2  0
  5  2  2  0
  2  3  1  0
  3  4  2  0
  4  1  1  0
  5  6  1  0
  6  7  1  0
  7  8  2  0
  8  9  1  0
  9  5  1  0
  3 10  1  0
 10 11  1  0
 11 12  2  0
 12 13  1  0
 13 14  2  0
 14 15  1  0
 15 16  2  0
 16 11  1  0
  9 17  1  0
 17 18  1  0
 17 19  1  1
 19 20  1  0
 19 21  1  0
 19 22  1  0
 23 24  1  0
 23 28  1  0
 24 25  1  0
 25 26  1  0
 26 27  1  0
 27 28  1  0
 13 23  1  0
 27 29  1  1
 26 30  1  1
 30 31  1  0
  8 32  1  0
 32 33  1  0
 32 34  1  6
M  END
> <chembl_id>
CHEMBL3736121

$$$$

  SciTegic09261414462D

 29 32  0  0  0  0            999 V2000
    8.2294  -23.1894    0.0000 N   0  0
    8.9391  -22.7800    0.0000 C   0  0
    8.9363  -21.9573    0.0000 N   0  0
    8.2276  -21.5521    0.0000 C   0  0
    7.5214  -22.7805    0.0000 C   0  0
    7.5226  -21.9640    0.0000 C   0  0
    6.7464  -21.7104    0.0000 C   0  0
    6.2654  -22.3703    0.0000 C   0  0
    6.7444  -23.0316    0.0000 S   0  0
    8.2239  -20.7349    0.0000 N   0  0
    8.9297  -20.3231    0.0000 C   0  0
    9.6371  -20.7332    0.0000 C   0  0
   10.3424  -20.3220    0.0000 C   0  0
   10.3391  -19.5040    0.0000 C   0  0
    9.6246  -19.0988    0.0000 C   0  0
    8.9221  -19.5123    0.0000 C   0  0
    5.4482  -22.3692    0.0000 N   0  0
    5.0407  -21.6609    0.0000 C   0  0
    4.2235  -21.6597    0.0000 C   0  0
    5.4503  -20.9537    0.0000 O   0  0
   11.0444  -19.0912    0.0000 F   0  0
   11.0518  -20.7277    0.0000 Cl  0  0
    3.8159  -20.9514    0.0000 N   0  0
    4.2251  -20.2449    0.0000 C   0  0
    3.8210  -19.5387    0.0000 C   0  0
    3.0035  -19.5333    0.0000 N   0  0
    2.5917  -20.2403    0.0000 C   0  0
    2.9974  -20.9526    0.0000 C   0  0
    2.5986  -18.8235    0.0000 C   0  0
  5  1  1  0
  1  2  2  0
  2  3  1  0
  3  4  2  0
  4  6  1  0
  5  6  2  0
  6  7  1  0
  7  8  2  0
  8  9  1  0
  9  5  1  0
  4 10  1  0
 10 11  1  0
 11 12  2  0
 12 13  1  0
 13 14  2  0
 14 15  1  0
 15 16  2  0
 16 11  1  0
  8 17  1  0
 17 18  1  0
 18 19  1  0
 18 20  2  0
 14 21  1  0
 13 22  1  0
 19 23  1  0
 23 24  1  0
 23 28  1  0
 24 25  1  0
 25 26  1  0
 26 27  1  0
 27 28  1  0
 26 29  1  0
M  END
> <chembl_id>
CHEMBL3233765

$$$$

  SciTegic11161111432D

 30 31  0  0  0  0            999 V2000
   21.9069  -14.2500    0.0000 C   0  0
   21.9057  -15.0773    0.0000 C   0  0
   22.6206  -15.4902    0.0000 C   0  0
   23.3370  -15.0769    0.0000 C   0  0
   23.3341  -14.2463    0.0000 C   0  0
   22.6188  -13.8372    0.0000 C   0  0
   24.0471  -13.8311    0.0000 C   0  0
   24.7631  -14.2409    0.0000 C   0  0
   25.4760  -13.8258    0.0000 C   0  0
   26.1920  -14.2356    0.0000 C   0  0
   25.4729  -13.0008    0.0000 O   0  0
   26.9049  -13.8204    0.0000 C   0  0
   27.6209  -14.2302    0.0000 C   0  0
   26.9018  -12.9954    0.0000 O   0  0
   28.3339  -13.8150    0.0000 C   0  0
   29.0499  -14.2248    0.0000 C   0  0
   29.0503  -15.0469    0.0000 C   0  0
   29.7655  -15.4566    0.0000 C   0  0
   30.4794  -15.0414    0.0000 C   0  0
   30.4736  -14.2121    0.0000 C   0  0
   29.7579  -13.8062    0.0000 C   0  0
   26.1951  -15.0606    0.0000 C   0  0
   21.1923  -13.8376    0.0000 O   0  0
   21.1921  -13.0126    0.0000 C   0  0
   31.1851  -13.7944    0.0000 O   0  0
   31.9025  -14.2017    0.0000 C   0  0
   21.1909  -15.4893    0.0000 O   0  0
   31.1960  -15.4503    0.0000 O   0  0
   20.4768  -15.0762    0.0000 C   0  0
   31.9083  -15.0341    0.0000 C   0  0
 13 15  2  0
  3  4  2  0
 15 16  1  0
  7  8  2  0
 16 17  2  0
 17 18  1  0
  8  9  1  0
 18 19  2  0
  4  5  1  0
 19 20  1  0
  9 10  1  0
 20 21  2  0
 21 16  1  0
  2  3  1  0
 10 22  1  0
  9 11  2  0
  1 23  1  0
  5  6  2  0
 23 24  1  0
 10 12  2  0
 20 25  1  0
  6  1  1  0
 25 26  1  0
 12 13  1  0
  2 27  1  0
  1  2  2  0
 19 28  1  0
 12 14  1  0
 27 29  1  0
  5  7  1  0
 28 30  1  0
M  END
> <chembl_id>
CHEMBL1797798

$$$$

  SciTegic11201309402D

143153  0  0  0  0            999 V2000
   10.3596   -4.0821    0.0000 C   0  0
   10.3704   -4.9239    0.0000 C   0  0  2  0  0  0
   11.0959   -5.3352    0.0000 C   0  0
   11.8210   -4.9030    0.0000 N   0  0
   13.2761   -4.8950    0.0000 C   0  0
   12.5522   -5.3149    0.0000 C   0  0
   11.7828   -1.6413    0.0000 C   0  0
   12.4970   -1.2188    0.0000 N   0  0
   13.2220   -1.6132    0.0000 C   0  0  2  0  0  0
   14.7170   -4.8676    0.0000 N   0  0
   13.9938   -5.3017    0.0000 C   0  0  2  0  0  0
   10.3542   -2.4690    0.0000 C   0  0
   10.3553   -1.6478    0.0000 N   0  0
   11.0647   -1.2403    0.0000 C   0  0  1  0  0  0
    9.6421   -2.8935    0.0000 C   0  0  1  0  0  0
    9.6535   -3.7175    0.0000 N   0  0
   13.9259   -1.1819    0.0000 C   0  0
   14.6488   -1.5752    0.0000 N   0  0
   15.3527   -1.1439    0.0000 C   0  0  2  0  0  0
   16.0799   -1.5413    0.0000 C   0  0
   16.0990   -2.3659    0.0000 N   0  0
   16.8261   -2.7592    0.0000 C   0  0  2  0  0  0
   16.8452   -3.5838    0.0000 C   0  0
   16.1413   -4.0151    0.0000 N   0  0
   16.1604   -4.8397    0.0000 C   0  0
   15.4565   -5.2710    0.0000 C   0  0
    9.6613   -5.3437    0.0000 N   0  0
   11.0598   -3.6448    0.0000 O   0  0
    8.9213   -2.4930    0.0000 C   0  0
    8.9069   -1.6681    0.0000 C   0  0
    8.2107   -2.9173    0.0000 C   0  0
   11.0740   -2.8787    0.0000 O   0  0
   11.0600   -0.4153    0.0000 C   0  0
   10.3397   -0.0063    0.0000 C   0  0
   10.3381    0.8153    0.0000 C   0  0
    9.6191    1.2241    0.0000 C   0  0
    8.9062    0.8038    0.0000 C   0  0
    8.9150   -0.0234    0.0000 C   0  0
    9.6348   -0.4266    0.0000 C   0  0
   11.7953   -2.4662    0.0000 O   0  0
   13.2178   -0.7882    0.0000 C   0  0
   15.3337   -0.3193    0.0000 C   0  0
   16.0376    0.1079    0.0000 C   0  0
   14.6065    0.0740    0.0000 C   0  0
   16.7838   -1.1100    0.0000 O   0  0
   17.5300   -2.3279    0.0000 C   0  0
   18.2530   -2.7253    0.0000 C   0  0
   18.2735   -3.5479    0.0000 C   0  0
   18.9952   -3.9411    0.0000 C   0  0
   19.7006   -3.5097    0.0000 C   0  0
   19.6773   -2.6829    0.0000 C   0  0
   18.9549   -2.2912    0.0000 C   0  0
   17.5723   -3.9771    0.0000 O   0  0
   15.4794   -6.0956    0.0000 O   0  0
   14.0060   -6.1266    0.0000 C   0  0
   14.7216   -6.5332    0.0000 O   0  0
   13.9026   -0.3573    0.0000 O   0  0
   12.5019   -0.3787    0.0000 C   0  0
   12.4936    0.4462    0.0000 C   0  0
   11.7674    1.6776    0.0000 C   0  0
    8.7837   -3.4066    0.0000 H   0  0
   12.5574   -6.1398    0.0000 O   0  0
  -14.0569    1.8036    0.0000 C   0  0
  -14.1639    0.9825    0.0000 C   0  0
  -13.4984    0.4861    0.0000 C   0  0
  -13.3052    2.1271    0.0000 C   0  0
  -12.6408    1.6344    0.0000 C   0  0
  -12.7404    0.8094    0.0000 C   0  0
  -11.9856    0.4590    0.0000 N   0  0
  -11.8230    1.7937    0.0000 C   0  0
  -11.4235    1.0665    0.0000 C   0  0
  -10.1720    1.7615    0.0000 C   0  0
  -10.5987    1.0481    0.0000 C   0  0
   -9.3588    1.5712    0.0000 C   0  0
   -9.2871    0.7404    0.0000 C   0  0
   -8.5320    0.3874    0.0000 C   0  0
   -7.8491    0.8640    0.0000 C   0  0
   -7.9248    1.6976    0.0000 C   0  0
   -8.6797    2.0469    0.0000 C   0  0
  -11.4063    2.5017    0.0000 C   0  0
  -10.5690    2.4860    0.0000 C   0  0
  -10.2986    3.2699    0.0000 C   0  0
  -10.9618    3.7702    0.0000 N   0  0
  -11.6400    3.2954    0.0000 C   0  0
   -9.5129    3.5099    0.0000 O   0  0
  -11.7688   -0.3969    0.0000 C   0  0  2  0  0  0
  -11.7688   -1.2219    0.0000 C   0  0  1  0  0  0
  -11.0642   -1.6303    0.0000 C   0  0  1  0  0  0
  -10.3512   -1.2219    0.0000 C   0  0
  -10.3512   -0.3969    0.0000 C   0  0  1  0  0  0
  -11.0642    0.0197    0.0000 O   0  0
  -10.1355    0.4031    0.0000 N   0  0
  -11.0642   -2.4553    0.0000 N   0  0
  -10.3453   -2.8678    0.0000 C   0  0
  -12.4883   -1.6355    0.0000 O   0  0
  -13.1982   -1.2240    0.0000 C   0  0
  -12.5938   -0.3928    0.0000 C   0  0
  -11.7747   -2.8678    0.0000 C   0  0
  -12.4936   -2.4553    0.0000 O   0  0
  -11.7747   -3.6928    0.0000 C   0  0
  -11.0642   -4.1053    0.0000 C   0  0
  -11.0642   -4.9303    0.0000 C   0  0
  -10.3453   -5.3428    0.0000 N   0  0
  -11.7747   -5.3428    0.0000 O   0  0
   -9.6348   -4.9303    0.0000 C   0  0
   -8.9159   -5.3428    0.0000 C   0  0
   -8.2054   -4.9303    0.0000 C   0  0
   -7.4865   -5.3428    0.0000 N   0  0
   -8.2054   -4.1053    0.0000 O   0  0
   -6.7760   -4.9303    0.0000 C   0  0
   -6.0571   -5.3428    0.0000 C   0  0
   -5.3410   -4.9303    0.0000 C   0  0
   -4.6266   -5.3428    0.0000 N   0  0
   -5.3410   -4.1053    0.0000 O   0  0
   -3.9121   -4.9303    0.0000 C   0  0
   -3.1976   -5.3428    0.0000 C   0  0
   -2.4832   -4.9303    0.0000 C   0  0
   -1.7687   -5.3428    0.0000 N   0  0
   -2.4832   -4.1053    0.0000 O   0  0
   -1.0542   -4.9303    0.0000 C   0  0
   -0.3398   -5.3428    0.0000 C   0  0
    0.3747   -4.9303    0.0000 C   0  0
    1.0892   -5.3428    0.0000 N   0  0
    0.3747   -4.1053    0.0000 O   0  0
    1.8037   -4.9303    0.0000 C   0  0
    2.5181   -5.3428    0.0000 C   0  0
    3.2326   -4.9303    0.0000 C   0  0
    3.9471   -5.3428    0.0000 N   0  0
    3.2326   -4.1053    0.0000 O   0  0
    4.6615   -4.9303    0.0000 C   0  0
    5.3760   -5.3428    0.0000 C   0  0
    6.0905   -4.9303    0.0000 C   0  0
    6.0905   -4.1053    0.0000 O   0  0
    6.8050   -5.3428    0.0000 N   0  0
    7.5194   -4.9303    0.0000 C   0  0
    8.2339   -5.3428    0.0000 C   0  0
    8.9484   -4.9303    0.0000 C   0  0
    8.9484   -4.1053    0.0000 O   0  0
   13.2943   -6.5490    0.0000 N   0  0
   11.7757    0.8526    0.0000 N   0  0
   11.0515    2.0871    0.0000 N   0  0
   12.4832    2.0974    0.0000 N   0  0
   -9.3599   -0.5282    0.0000 H   0  0
  7  8  1  0
  8  9  1  0
 68 69  1  0
 69 71  1  0
 70 67  1  0
  5 11  1  0
 11 10  1  0
 70 71  2  0
 71 73  1  0
 72 81  1  0
 80 70  1  0
 72 73  2  0
 12 13  1  0
  7 14  1  0
 73 92  1  0
 92 75  1  0
 74 72  1  0
 13 14  1  0
 15 16  1  0
 74 75  2  0
 12 15  1  0
 75 76  1  0
 16  1  1  0
 76 77  2  0
 10 26  1  0
 77 78  1  0
  9 17  1  0
 78 79  2  0
 79 74  1  0
 80 81  2  0
 17 18  1  0
 18 19  1  0
 19 20  1  0
 20 21  1  0
 21 22  1  0
 81 82  1  0
 82 83  1  0
 83 84  1  0
 84 80  1  0
 22 23  1  0
 82 85  2  0
 23 24  1  0
 69 86  1  0
 86 87  1  0
 24 25  1  0
 25 26  1  0
  2 27  1  6
  1 28  2  0
 15 29  1  0
 86 91  1  0
 87 88  1  0
 88 89  1  0
 89 90  1  0
 90 91  1  0
 29 30  1  0
 90 92  1  0
 29 31  1  0
 88 93  1  1
 12 32  2  0
 93 94  1  0
 14 33  1  1
 87 95  1  1
 33 34  1  0
 95 96  1  0
 34 35  2  0
 86 97  1  6
 35 36  1  0
 93 98  1  0
 36 37  2  0
 98 99  2  0
 37 38  1  0
 98100  1  0
 38 39  2  0
100101  1  0
 39 34  1  0
101102  1  0
  7 40  2  0
102103  1  0
  9 41  1  6
102104  2  0
 19 42  1  1
103105  1  0
 42 43  1  0
105106  1  0
 42 44  1  0
106107  1  0
 20 45  2  0
107108  1  0
 22 46  1  1
107109  2  0
 46 47  1  0
108110  1  0
 47 48  2  0
110111  1  0
 48 49  1  0
111112  1  0
 49 50  2  0
112113  1  0
 50 51  1  0
112114  2  0
 51 52  2  0
113115  1  0
 52 47  1  0
115116  1  0
 23 53  2  0
116117  1  0
 26 54  2  0
117118  1  0
 11 55  1  6
117119  2  0
118120  1  0
 55 56  2  0
120121  1  0
 17 57  2  0
121122  1  0
 41 58  1  0
122123  1  0
 58 59  1  0
122124  2  0
123125  1  0
125126  1  0
126127  1  0
127128  1  0
 15 61  1  6
127129  2  0
128130  1  0
  6 62  2  0
130131  1  0
  1  2  1  0
131132  1  0
  2  3  1  0
132133  2  0
 63 64  2  0
132134  1  0
  3  4  1  0
134135  1  0
 64 65  1  0
135136  1  0
 65 68  2  0
136137  1  0
137 27  1  0
  5  6  1  0
137138  2  0
 67 66  2  0
 66 63  1  0
 67 68  1  0
  6  4  1  0
 59140  1  0
140 60  1  0
 55139  1  0
 60141  1  0
 60142  2  0
 90143  1  6
M  END
> <chembl_id>
CHEMBL609010

$$$$

  SciTegic12161615062D

 33 36  0  0  0  0            999 V2000
    1.2990   -0.7500    0.0000 C   0  0
    1.2990    0.7500    0.0000 C   0  0
    0.0000    1.5000    0.0000 C   0  0
   -1.2990    0.7500    0.0000 C   0  0
   -1.2990   -0.7500    0.0000 C   0  0
    0.0000   -1.5000    0.0000 N   0  0
    2.5972    1.5031    0.0000 C   0  0
    3.6375    0.9049    0.0000 O   0  0
    2.5951    3.0039    0.0000 N   0  0
    2.3383   -1.3500    0.0000 O   0  0
   -0.0031    3.0008    0.0000 N   0  0
   -1.3039    3.7494    0.0000 C   0  0
   -1.3092    5.2494    0.0000 C   0  0
   -2.6108    5.9949    0.0000 C   0  0
   -3.9073    5.2404    0.0000 C   0  0
   -3.9021    3.7404    0.0000 C   0  0
   -2.6005    2.9949    0.0000 C   0  0
   -0.0136    6.0070    0.0000 O   0  0
   -0.0195    7.2070    0.0000 C   0  0
    3.8933    3.7570    0.0000 C   0  0
    3.8933    5.2571    0.0000 C   0  0
    5.1924    6.0071    0.0000 C   0  0
    6.4914    5.2571    0.0000 C   0  0
    6.4915    3.7571    0.0000 C   0  0
    5.1925    3.0071    0.0000 C   0  0
    7.7911    6.0075    0.0000 N   0  0
    7.7935    7.5076    0.0000 C   0  0
    9.0937    8.2556    0.0000 C   0  0
   10.3916    7.5036    0.0000 N   0  0
   10.3893    6.0036    0.0000 C   0  0
    9.0891    5.2556    0.0000 C   0  0
   11.4318    8.1019    0.0000 C   0  0
    5.1923    7.2071    0.0000 C   0  0
  1  2  1  0
  2  3  2  0
  3  4  1  0
  4  5  2  0
  5  6  1  0
  1  6  1  0
  7  8  2  0
  7  9  1  0
  2  7  1  0
  1 10  2  0
  3 11  1  0
 11 12  1  0
 12 13  2  0
 13 14  1  0
 14 15  2  0
 15 16  1  0
 16 17  2  0
 17 12  1  0
 13 18  1  0
 18 19  1  0
  9 20  1  0
 20 21  2  0
 21 22  1  0
 22 23  2  0
 23 24  1  0
 24 25  2  0
 25 20  1  0
 26 27  1  0
 26 31  1  0
 27 28  1  0
 28 29  1  0
 29 30  1  0
 30 31  1  0
 23 26  1  0
 29 32  1  0
 22 33  1  0
M  END
> <chembl_id>
CHEMBL3780320

$$$$

  SciTegic09081514182D

 34 35  0  0  0  0            999 V2000
    1.2990   -0.7500    0.0000 C   0  0
    1.2990    0.7500    0.0000 C   0  0
    0.0000    1.5000    0.0000 C   0  0
   -1.2990    0.7500    0.0000 C   0  0
   -1.2990   -0.7500    0.0000 C   0  0
    0.0000   -1.5000    0.0000 C   0  0
   -2.5972   -1.5031    0.0000 C   0  0
   -2.5951   -3.0039    0.0000 C   0  0
   -3.8933   -3.7570    0.0000 C   0  0
   -3.8912   -5.2578    0.0000 C   0  0
   -4.9336   -3.1588    0.0000 O   0  0
   -5.1894   -6.0109    0.0000 C   0  0
   -5.1872   -7.5117    0.0000 C   0  0
   -6.2296   -5.4127    0.0000 O   0  0
   -6.4854   -8.2648    0.0000 C   0  0
   -6.4833   -9.7657    0.0000 C   0  0
   -7.7797  -10.5203    0.0000 C   0  0
   -7.7745  -12.0202    0.0000 C   0  0
   -6.4729  -12.7657    0.0000 C   0  0
   -5.1764  -12.0112    0.0000 C   0  0
   -5.1816  -10.5113    0.0000 C   0  0
    2.5973   -1.5031    0.0000 O   0  0
    2.3383    1.3500    0.0000 O   0  0
   -6.4687  -13.9657    0.0000 O   0  0
   -3.8726  -12.7545    0.0000 O   0  0
   -2.8363  -12.1494    0.0000 C   0  0
   -2.5916   -6.0087    0.0000 C   0  0
   -2.5912   -7.5095    0.0000 C   0  0
   -1.2916   -8.2603    0.0000 C   0  0
   -0.2524   -7.6603    0.0000 O   0  0
   -1.2912   -9.7611    0.0000 O   0  0
    0.0084  -10.5119    0.0000 C   0  0
    0.0087  -11.7119    0.0000 C   0  0
    2.5956   -2.7031    0.0000 C   0  0
  1  2  2  0
  2  3  1  0
  3  4  2  0
  4  5  1  0
  5  6  2  0
  6  1  1  0
  5  7  1  0
  7  8  2  0
  8  9  1  0
  9 10  2  0
  9 11  1  0
 10 12  1  0
 12 13  1  0
 12 14  2  0
 13 15  2  0
 15 16  1  0
 16 17  2  0
 17 18  1  0
 18 19  2  0
 19 20  1  0
 20 21  2  0
 21 16  1  0
  1 22  1  0
  2 23  1  0
 19 24  1  0
 20 25  1  0
 25 26  1  0
 10 27  1  0
 27 28  2  0
 28 29  1  0
 29 30  2  0
 29 31  1  0
 31 32  1  0
 32 33  1  0
 22 34  1  0
M  END
> <chembl_id>
CHEMBL3402851

$$$$

  SciTegic04201614442D

 37 40  0  0  0  0            999 V2000
    0.6245   -8.9760    0.0000 C   0  0
    1.2077  -10.3580    0.0000 C   0  0
    2.6962  -10.5439    0.0000 C   0  0
    3.6014   -9.3479    0.0000 C   0  0
    3.0182   -7.9659    0.0000 C   0  0
    1.5297   -7.7799    0.0000 C   0  0
    5.0910   -9.5309    0.0000 N   0  0
    5.9951   -8.3329    0.0000 C   0  0
    7.4847   -8.5159    0.0000 C   0  0
    5.5266   -7.2281    0.0000 O   0  0
    8.2076   -7.5580    0.0000 C   0  0
    3.2768  -11.9279    0.0000 N   0  0
    2.3694  -13.1233    0.0000 C   0  0
    4.4673  -12.0787    0.0000 C   0  0
    2.9500  -14.5072    0.0000 C   0  0
    2.0425  -15.7026    0.0000 N   0  0
    2.5068  -16.8092    0.0000 C   0  0
    0.8521  -15.5518    0.0000 C   0  0
    0.9491   -6.3959    0.0000 N   0  0
    1.8565   -5.2005    0.0000 C   0  0
    1.2781   -3.8165    0.0000 N   0  0
    2.1852   -2.6281    0.0000 C   0  0
    3.6753   -2.8147    0.0000 C   0  0
    4.2537   -4.1987    0.0000 N   0  0
    3.3443   -5.3916    0.0000 C   0  0
    1.7138   -1.2033    0.0000 C   0  0
    2.5889    0.0182    0.0000 C   0  0
    1.7138    1.2033    0.0000 N   0  0
    0.2917   -0.7475    0.0000 C   0  0
    0.2917    0.7475    0.0000 C   0  0
   -1.0028    1.5132    0.0000 C   0  0
   -2.3155    0.7475    0.0000 C   0  0
   -2.3155   -0.7475    0.0000 C   0  0
   -1.0028   -1.5132    0.0000 C   0  0
    2.0825    2.3453    0.0000 C   0  0
   -0.8651   -8.7930    0.0000 O   0  0
   -1.5879   -9.7509    0.0000 C   0  0
  1  2  2  0
  2  3  1  0
  3  4  2  0
  4  5  1  0
  5  6  2  0
  6  1  1  0
  4  7  1  0
  7  8  1  0
  8  9  1  0
  8 10  2  0
  9 11  2  0
  3 12  1  0
 12 13  1  0
 12 14  1  0
 13 15  1  0
 15 16  1  0
 16 17  1  0
 16 18  1  0
  6 19  1  0
 19 20  1  0
 20 21  2  0
 21 22  1  0
 22 23  2  0
 23 24  1  0
 24 25  2  0
 25 20  1  0
 26 27  2  0
 27 28  1  0
 28 30  1  0
 29 26  1  0
 22 26  1  0
 29 30  2  0
 30 31  1  0
 31 32  2  0
 32 33  1  0
 33 34  2  0
 34 29  1  0
 28 35  1  0
 36 37  1  0
  1 36  1  0
M  END
> <chembl_id>
CHEMBL3633141

$$$$

  SciTegic06181315362D

 39 43  0  0  0  0            999 V2000
   34.2397  -10.8332    0.0000 C   0  0
   34.2386  -11.6605    0.0000 N   0  0
   34.9534  -12.0734    0.0000 C   0  0
   34.9517  -10.4204    0.0000 N   0  0
   35.6670  -10.8296    0.0000 C   0  0
   35.6672  -11.6560    0.0000 C   0  0
   36.4539  -11.9104    0.0000 C   0  0
   36.9390  -11.2424    0.0000 C   0  0
   36.4530  -10.5739    0.0000 O   0  0
   37.7607  -11.2433    0.0000 C   0  0
   38.1729  -11.9592    0.0000 C   0  0
   38.9971  -11.9592    0.0000 C   0  0
   39.4102  -11.2441    0.0000 C   0  0
   38.9930  -10.5274    0.0000 C   0  0
   38.1702  -10.5309    0.0000 C   0  0
   34.9556  -12.8983    0.0000 N   0  0
   34.2423  -13.3127    0.0000 C   0  0  2  0  0  0
   34.2445  -14.1377    0.0000 C   0  0
   33.5267  -12.9022    0.0000 C   0  0
   33.5294  -12.0785    0.0000 C   0  0
   32.8148  -11.6680    0.0000 C   0  0
   32.1004  -12.0824    0.0000 C   0  0
   32.1053  -12.9116    0.0000 C   0  0
   32.8205  -13.3184    0.0000 C   0  0
   36.8537  -12.6299    0.0000 C   0  0
   36.4285  -13.3383    0.0000 C   0  0
   36.8293  -14.0584    0.0000 C   0  0
   37.6551  -14.0715    0.0000 C   0  0
   38.0784  -13.3584    0.0000 C   0  0
   37.6751  -12.6411    0.0000 C   0  0
   33.5311  -14.5522    0.0000 O   0  0
   36.4056  -14.7663    0.0000 N   0  0
   35.5807  -14.7533    0.0000 C   0  0
   35.1570  -15.4611    0.0000 C   0  0
   35.1795  -14.0324    0.0000 O   0  0
   34.3321  -15.4481    0.0000 C   0  0
   33.9084  -16.1560    0.0000 N   0  0
   33.0835  -16.1430    0.0000 C   0  0
   34.3096  -16.8769    0.0000 C   0  0
  1  2  2  0
  2  3  1  0
  3  6  2  0
  5  4  2  0
  4  1  1  0
  5  6  1  0
  6  7  1  0
  7  8  2  0
  8  9  1  0
  9  5  1  0
 10 11  2  0
 11 12  1  0
 12 13  2  0
 13 14  1  0
 14 15  2  0
 15 10  1  0
  8 10  1  0
  3 16  1  0
 17 16  1  6
 17 18  1  0
 17 19  1  0
 19 20  2  0
 20 21  1  0
 21 22  2  0
 22 23  1  0
 23 24  2  0
 24 19  1  0
 25 26  2  0
 26 27  1  0
 27 28  2  0
 28 29  1  0
 29 30  2  0
 30 25  1  0
  7 25  1  0
 18 31  1  0
 27 32  1  0
 32 33  1  0
 33 34  1  0
 33 35  2  0
 34 36  1  0
 36 37  1  0
 37 38  1  0
 37 39  1  0
M  END
> <chembl_id>
CHEMBL2347963

$$$$

  SciTegic12091611192D

 28 32  0  0  0  0            999 V2000
   -3.6217    1.4865    0.0000 N   0  0
   -7.5133    0.6990    0.0000 C   0  0
   -6.2219    1.4621    0.0000 N   0  0
   -4.9153    0.7255    0.0000 C   0  0
   -4.9001   -0.7745    0.0000 C   0  0
   -6.1914   -1.5377    0.0000 C   0  0
   -7.4980   -0.8010    0.0000 N   0  0
   -8.8205    1.4361    0.0000 N   0  0
   -8.8383    2.9360    0.0000 C   0  0
  -10.1461    3.6707    0.0000 C   0  0
  -11.4362    2.9055    0.0000 C   0  0
  -11.4185    1.4056    0.0000 C   0  0
  -10.1108    0.6709    0.0000 C   0  0
  -12.7462    3.6378    0.0000 O   0  0
  -13.7774    3.0242    0.0000 C   0  0
   -1.0028   -1.5132    0.0000 C   0  0
    0.2917   -0.7475    0.0000 C   0  0
    0.2917    0.7475    0.0000 C   0  0
   -1.0028    1.5132    0.0000 C   0  0
   -2.3155    0.7475    0.0000 C   0  0
   -2.3155   -0.7475    0.0000 N   0  0
    2.5889    0.0182    0.0000 C   0  0
    1.7138   -1.2033    0.0000 N   0  0
    1.7138    1.2033    0.0000 N   0  0
    2.1749    2.6315    0.0000 C   0  0
    1.5776    3.9634    0.0000 C   0  0
    2.9613    4.5425    0.0000 C   0  0
    3.5404    3.1587    0.0000 C   0  0
  2  3  1  0
  3  4  2  0
  4  5  1  0
  5  6  2  0
  6  7  1  0
  2  7  2  0
  8  9  1  0
  9 10  1  0
 10 11  1  0
 11 12  1  0
 12 13  1  0
  8 13  1  0
 14 15  1  0
 11 14  1  0
  2  8  1  0
  1  4  1  0
 16 17  1  0
 17 18  2  0
 18 19  1  0
 19 20  2  0
 20 21  1  0
 16 21  2  0
 22 23  2  0
 22 24  1  0
 17 23  1  0
 18 24  1  0
  1 20  1  0
 24 25  1  0
 25 26  1  0
 26 27  1  0
 27 28  1  0
 28 25  1  0
M  END
> <chembl_id>
CHEMBL3736409

$$$$

  SciTegic12201611512D

 30 34  0  0  0  0            999 V2000
   -2.1332   -2.2973    0.0000 N   0  0
   -3.4277   -1.5498    0.0000 C   0  0
   -3.4277    0.0000    0.0000 N   0  0
   -2.1332    0.6928    0.0000 C   0  0
   -0.8205    0.0000    0.0000 C   0  0
    0.4558    0.6928    0.0000 C   0  0
    1.7503    0.0000    0.0000 C   0  0
    1.7503   -1.5498    0.0000 C   0  0
    0.4558   -2.2973    0.0000 C   0  0
   -0.8205   -1.5498    0.0000 C   0  0
    0.4558    2.1879    0.0000 O   0  0
    3.0631    0.6928    0.0000 O   0  0
    3.0631    2.1879    0.0000 C   0  0
    1.7503    2.9537    0.0000 C   0  0
   -2.1454    2.1947    0.0000 N   0  0
    3.0410   -2.3153    0.0000 O   0  0
    3.0239   -3.8160    0.0000 C   0  0
   -3.4508    2.9353    0.0000 C   0  0
   -3.4653    4.4352    0.0000 C   0  0
   -4.7714    5.1728    0.0000 C   0  0
   -6.0632    4.4104    0.0000 C   0  0
   -6.0489    2.9104    0.0000 C   0  0
   -4.7427    2.1729    0.0000 C   0  0
   -4.7858    6.6735    0.0000 C   0  0
   -4.7973    7.8735    0.0000 C   0  0
    4.3129   -4.5833    0.0000 C   0  0
    4.2931   -6.0831    0.0000 C   0  0
    2.9842   -6.8159    0.0000 O   0  0
    1.6952   -6.0488    0.0000 C   0  0
    1.7151   -4.5489    0.0000 C   0  0
  1  2  1  0
  2  3  2  0
  3  4  1  0
  4  5  2  0
  5  6  1  0
  6  7  2  0
  7  8  1  0
  8  9  2  0
  9 10  1  0
  1 10  2  0
  5 10  1  0
 12 13  1  0
 13 14  1  0
 11 14  1  0
  6 11  1  0
  7 12  1  0
  4 15  1  0
 16 17  1  0
  8 16  1  0
 18 19  1  0
 19 20  2  0
 20 21  1  0
 21 22  2  0
 22 23  1  0
 18 23  2  0
 24 25  3  0
 20 24  1  0
 15 18  1  0
 17 26  1  0
 17 30  1  0
 26 27  1  0
 27 28  1  0
 28 29  1  0
 29 30  1  0
M  END
> <chembl_id>
CHEMBL3806145

$$$$

  SciTegic12201611502D

 30 34  0  0  0  0            999 V2000
   -2.1332   -2.2973    0.0000 N   0  0
   -3.4277   -1.5498    0.0000 C   0  0
   -3.4277    0.0000    0.0000 N   0  0
   -2.1332    0.6928    0.0000 C   0  0
   -0.8205    0.0000    0.0000 C   0  0
    0.4558    0.6928    0.0000 C   0  0
    1.7503    0.0000    0.0000 C   0  0
    1.7503   -1.5498    0.0000 C   0  0
    0.4558   -2.2973    0.0000 C   0  0
   -0.8205   -1.5498    0.0000 C   0  0
    0.4558    2.1879    0.0000 O   0  0
    3.0631    0.6928    0.0000 O   0  0
    3.0631    2.1879    0.0000 C   0  0
    1.7503    2.9537    0.0000 C   0  0
   -2.1454    2.1947    0.0000 N   0  0
    3.0410   -2.3153    0.0000 O   0  0
    3.0239   -3.8160    0.0000 C   0  0
    4.4378   -6.0641    0.0000 O   0  0
    4.3146   -4.5820    0.0000 C   0  0
    5.6721   -3.9744    0.0000 C   0  0
    6.6647   -5.0990    0.0000 C   0  0
    5.9018   -6.3905    0.0000 C   0  0
   -3.4508    2.9353    0.0000 C   0  0
   -3.4653    4.4352    0.0000 C   0  0
   -4.7714    5.1728    0.0000 C   0  0
   -6.0632    4.4104    0.0000 C   0  0
   -6.0489    2.9104    0.0000 C   0  0
   -4.7427    2.1729    0.0000 C   0  0
   -4.7858    6.6735    0.0000 C   0  0
   -4.7973    7.8735    0.0000 C   0  0
  1  2  1  0
  2  3  2  0
  3  4  1  0
  4  5  2  0
  5  6  1  0
  6  7  2  0
  7  8  1  0
  8  9  2  0
  9 10  1  0
  1 10  2  0
  5 10  1  0
 12 13  1  0
 13 14  1  0
 11 14  1  0
  6 11  1  0
  7 12  1  0
  4 15  1  0
 16 17  1  0
 18 19  1  0
 19 20  1  0
 20 21  1  0
 21 22  1  0
 18 22  1  0
 17 19  1  0
  8 16  1  0
 23 24  1  0
 24 25  2  0
 25 26  1  0
 26 27  2  0
 27 28  1  0
 23 28  2  0
 29 30  3  0
 25 29  1  0
 15 23  1  0
M  END
> <chembl_id>
CHEMBL3805325

$$$$

  SciTegic12171313052D

 33 36  0  0  0  0            999 V2000
   26.4582  -17.0000    0.0000 C   0  0
   26.4571  -17.8196    0.0000 C   0  0
   27.1651  -18.2285    0.0000 C   0  0
   27.8748  -17.8191    0.0000 C   0  0
   27.8720  -16.9964    0.0000 C   0  0
   27.1634  -16.5912    0.0000 C   0  0
   27.1609  -15.7740    0.0000 N   0  0
   27.8674  -15.3633    0.0000 C   0  0
   28.5778  -15.7742    0.0000 N   0  0
   28.5679  -14.1398    0.0000 C   0  0
   27.8648  -14.5521    0.0000 N   0  0
   29.2818  -14.5461    0.0000 C   0  0
   29.2826  -15.3658    0.0000 C   0  0
   29.9890  -15.7728    0.0000 N   0  0
   30.6991  -15.3645    0.0000 C   0  0
   30.6983  -14.5447    0.0000 C   0  0
   29.9874  -14.1333    0.0000 N   0  0
   29.9901  -16.5872    0.0000 C   0  0
   29.2806  -16.9949    0.0000 C   0  0
   29.2799  -17.8114    0.0000 C   0  0
   29.9880  -18.2211    0.0000 C   0  0
   30.6982  -17.8084    0.0000 C   0  0
   30.6954  -16.9933    0.0000 C   0  0
   31.4066  -15.7734    0.0000 O   0  0
   29.9887  -19.0383    0.0000 N   0  0
   30.6968  -19.4462    0.0000 C   0  0
   30.6975  -20.2634    0.0000 O   0  0
   31.4041  -19.0370    0.0000 C   0  0
   32.1122  -19.4450    0.0000 C   0  0
   32.8195  -19.0357    0.0000 C   0  0
   33.5276  -19.4437    0.0000 N   0  0
   34.2350  -19.0344    0.0000 C   0  0
   33.5284  -20.2609    0.0000 C   0  0
  1  2  2  0
  2  3  1  0
  3  4  2  0
  4  5  1  0
  5  6  2  0
  6  1  1  0
  6  7  1  0
  7  8  1  0
  8  9  2  0
  9 13  1  0
 12 10  1  0
 10 11  2  0
 11  8  1  0
 12 13  2  0
 12 17  1  0
 13 14  1  0
 14 15  1  0
 15 16  1  0
 16 17  2  0
 18 19  2  0
 19 20  1  0
 20 21  2  0
 21 22  1  0
 22 23  2  0
 23 18  1  0
 14 18  1  0
 15 24  2  0
 21 25  1  0
 25 26  1  0
 26 27  2  0
 26 28  1  0
 28 29  2  0
 29 30  1  0
 30 31  1  0
 31 32  1  0
 31 33  1  0
M  END
> <chembl_id>
CHEMBL2437485

$$$$

  SciTegic11131810292D

 28 31  0  0  0  0            999 V2000
    4.1955    0.2934    0.0000 N   0  0
    3.9511   -0.8815    0.0000 C   0  0
    2.5987   -1.5004    0.0000 C   0  0
    1.2990   -0.7500    0.0000 C   0  0
    1.2990    0.7500    0.0000 C   0  0
    0.0000    1.5000    0.0000 C   0  0
   -1.2990    0.7500    0.0000 C   0  0
   -2.3383    1.3500    0.0000 F   0  0
   -1.2990   -0.7500    0.0000 C   0  0
    0.0000   -1.5000    0.0000 C   0  0
    2.7343   -2.9815    0.0000 C   0  0
    4.2010   -3.2956    0.0000 N   0  0
    4.9531   -1.9978    0.0000 N   0  0
    6.4458   -1.8433    0.0000 C   0  0
    7.4106   -2.9854    0.0000 C   0  0
    7.0043   -4.1145    0.0000 Cl  0  0
    8.8868   -2.7191    0.0000 C   0  0
    9.3943   -1.3076    0.0000 C   0  0
   10.5752   -1.0946    0.0000 Cl  0  0
    8.4256   -0.1623    0.0000 C   0  0
    6.9494   -0.4285    0.0000 C   0  0
    6.1731    0.4865    0.0000 Cl  0  0
    1.6115   -3.9772    0.0000 C   0  0
    0.1606   -3.6178    0.0000 C   0  0
   -0.8791   -4.6991    0.0000 C   0  0
   -0.4625   -6.1401    0.0000 N   0  0
    0.9937   -6.4998    0.0000 C   0  0
    2.0333   -5.4186    0.0000 C   0  0
  1  2  1  0
  2  3  2  0
  3  4  1  0
  4  5  2  0
  5  6  1  0
  6  7  2  0
  7  8  1  0
  7  9  1  0
  9 10  2  0
 10  4  1  0
  3 11  1  0
 11 12  2  0
 12 13  1  0
 13  2  1  0
 13 14  1  0
 14 15  2  0
 15 16  1  0
 15 17  1  0
 17 18  2  0
 18 19  1  0
 18 20  1  0
 20 21  2  0
 21 14  1  0
 21 22  1  0
 11 23  1  0
 23 24  2  0
 24 25  1  0
 25 26  2  0
 26 27  1  0
 27 28  2  0
 28 23  1  0
M  END
> <chembl_id>
CHEMBL2011291

$$$$

  CDK    9/16/09,9:19

 25 26  0  0  0  0  0  0  0  0999 V2000
   -1.7014   -1.4583    0.0000 C   0  0  0  0  0  0  0  0  0  0  0  0
   -1.7026   -2.2857    0.0000 C   0  0  0  0  0  0  0  0  0  0  0  0
   -0.9878   -2.6985    0.0000 C   0  0  0  0  0  0  0  0  0  0  0  0
   -0.2713   -2.2852    0.0000 C   0  0  0  0  0  0  0  0  0  0  0  0
   -0.2742   -1.4547    0.0000 C   0  0  0  0  0  0  0  0  0  0  0  0
   -0.9896   -1.0455    0.0000 C   0  0  0  0  0  0  0  0  0  0  0  0
   -2.4160   -1.0460    0.0000 O   0  0  0  0  0  0  0  0  0  0  0  0
    0.4438   -2.6966    0.0000 C   0  0  0  0  0  0  0  0  0  0  0  0
    1.1576   -2.2829    0.0000 C   0  0  0  0  0  0  0  0  0  0  0  0
    1.8727   -2.6943    0.0000 C   0  0  0  0  0  0  0  0  0  0  0  0
    2.5865   -2.2807    0.0000 C   0  0  0  0  0  0  0  0  0  0  0  0
    1.8740   -3.5193    0.0000 O   0  0  0  0  0  0  0  0  0  0  0  0
    3.3017   -2.6921    0.0000 C   0  0  0  0  0  0  0  0  0  0  0  0
    3.3030   -3.5171    0.0000 O   0  0  0  0  0  0  0  0  0  0  0  0
    4.0155   -2.2785    0.0000 C   0  0  0  0  0  0  0  0  0  0  0  0
    4.7306   -2.6898    0.0000 C   0  0  0  0  0  0  0  0  0  0  0  0
    5.4444   -2.2762    0.0000 C   0  0  0  0  0  0  0  0  0  0  0  0
    6.1587   -2.6887    0.0000 C   0  0  0  0  0  0  0  0  0  0  0  0
    6.8721   -2.2758    0.0000 C   0  0  0  0  0  0  0  0  0  0  0  0
    6.8712   -1.4499    0.0000 C   0  0  0  0  0  0  0  0  0  0  0  0
    6.1511   -1.0387    0.0000 C   0  0  0  0  0  0  0  0  0  0  0  0
    5.4407   -1.4540    0.0000 C   0  0  0  0  0  0  0  0  0  0  0  0
    7.5845   -1.0353    0.0000 O   0  0  0  0  0  0  0  0  0  0  0  0
    7.5870   -2.6875    0.0000 O   0  0  0  0  0  0  0  0  0  0  0  0
    7.5879   -3.5125    0.0000 C   0  0  0  0  0  0  0  0  0  0  0  0
  6  1  1  0  0  0  0 
 11 13  2  0  0  0  0 
  1  2  2  0  0  0  0 
 13 14  1  0  0  0  0 
  1  7  1  0  0  0  0 
 13 15  1  0  0  0  0 
  3  4  2  0  0  0  0 
 15 16  2  0  0  0  0 
  4  8  1  0  0  0  0 
 16 17  1  0  0  0  0 
 17 18  2  0  0  0  0 
  8  9  2  0  0  0  0 
 18 19  1  0  0  0  0 
  4  5  1  0  0  0  0 
 19 20  2  0  0  0  0 
  9 10  1  0  0  0  0 
 20 21  1  0  0  0  0 
  2  3  1  0  0  0  0 
 21 22  2  0  0  0  0 
 22 17  1  0  0  0  0 
 10 11  1  0  0  0  0 
 20 23  1  0  0  0  0 
  5  6  2  0  0  0  0 
 19 24  1  0  0  0  0 
 10 12  2  0  0  0  0 
 24 25  1  0  0  0  0 
M  END
> <chembl_id>
CHEMBL179512

$$$$

  SciTegic12121614122D

 33 36  0  0  0  0            999 V2000
   -6.4988    7.2101    0.0000 C   0  0
   -6.5006    6.0101    0.0000 N   0  0
   -5.2025    5.2568    0.0000 C   0  0
   -7.5410    5.4120    0.0000 C   0  0
   -5.2049    3.7560    0.0000 C   0  0
   -3.9067    3.0027    0.0000 C   0  0
   -3.9091    1.5019    0.0000 N   0  0
   -2.8664    3.6008    0.0000 O   0  0
   -2.6111    0.7486    0.0000 C   0  0
   -2.6111   -0.7486    0.0000 C   0  0
   -1.2964   -1.4973    0.0000 C   0  0
   -1.2964    1.4973    0.0000 C   0  0
   -3.9091   -1.5019    0.0000 O   0  0
   -3.9067   -3.0027    0.0000 C   0  0  1  0  0  0
   -5.1171   -3.8670    0.0000 C   0  0
   -4.6484   -5.2919    0.0000 C   0  0
   -3.1484   -5.2864    0.0000 O   0  0
   -2.6901   -3.8581    0.0000 C   0  0
    0.0000    0.7486    0.0000 C   0  0
    0.0000   -0.7486    0.0000 C   0  0
    1.2964   -1.4973    0.0000 N   0  0
    2.5929   -0.7486    0.0000 C   0  0
    2.5929    0.7486    0.0000 N   0  0
    1.2964    1.4973    0.0000 C   0  0
    1.2995    2.9981    0.0000 N   0  0
    2.6003    3.7467    0.0000 C   0  0
    2.6056    5.2467    0.0000 C   0  0
    3.9072    5.9922    0.0000 C   0  0
    5.2037    5.2377    0.0000 C   0  0
    5.1985    3.7377    0.0000 C   0  0
    3.8969    2.9922    0.0000 C   0  0
    6.2450    5.8341    0.0000 F   0  0
    3.9114    7.1922    0.0000 Cl  0  0
  1  2  1  0
  2  3  1  0
  2  4  1  0
  3  5  2  0
  5  6  1  0
  6  7  1  0
  6  8  2  0
  7  9  1  0
  9 10  2  0
 10 11  1  0
 11 20  2  0
 19 12  2  0
 12  9  1  0
 10 13  1  0
 14 13  1  6
 14 15  1  0
 15 16  1  0
 16 17  1  0
 17 18  1  0
 18 14  1  0
 19 20  1  0
 20 21  1  0
 21 22  2  0
 22 23  1  0
 23 24  2  0
 24 19  1  0
 24 25  1  0
 25 26  1  0
 26 27  2  0
 27 28  1  0
 28 29  2  0
 29 30  1  0
 30 31  2  0
 31 26  1  0
 29 32  1  0
 28 33  1  0
M  END
> <chembl_id>
CHEMBL3752204

$$$$

  SciTegic09261414462D

 34 38  0  0  0  0            999 V2000
    1.5541  -12.1508    0.0000 C   0  0
    1.9586  -11.4409    0.0000 O   0  0
    1.4084  -10.8368    0.0000 C   0  0
    0.6639  -11.1734    0.0000 C   0  0
    0.7540  -11.9854    0.0000 O   0  0
    8.0024  -16.5157    0.0000 N   0  0
    8.7121  -16.1063    0.0000 C   0  0
    8.7093  -15.2836    0.0000 N   0  0
    8.0006  -14.8784    0.0000 C   0  0
    7.2944  -16.1068    0.0000 C   0  0
    7.2956  -15.2902    0.0000 C   0  0
    6.5194  -15.0367    0.0000 C   0  0
    6.0384  -15.6966    0.0000 C   0  0
    6.5174  -16.3578    0.0000 S   0  0
    7.9969  -14.0612    0.0000 N   0  0
    8.7027  -13.6493    0.0000 C   0  0
    9.4101  -14.0595    0.0000 C   0  0
   10.1154  -13.6483    0.0000 C   0  0
   10.1121  -12.8302    0.0000 C   0  0
    9.3976  -12.4251    0.0000 C   0  0
    8.6951  -12.8386    0.0000 C   0  0
    5.2212  -15.6954    0.0000 N   0  0
    4.8137  -14.9871    0.0000 C   0  0
    3.9965  -14.9859    0.0000 C   0  0
    5.2233  -14.2800    0.0000 O   0  0
   10.8174  -12.4174    0.0000 F   0  0
   10.8248  -14.0540    0.0000 Cl  0  0
    3.5889  -14.2776    0.0000 C   0  0
    2.7717  -14.2765    0.0000 C   0  0
    2.3641  -13.5682    0.0000 N   0  0
    2.7741  -12.8626    0.0000 C   0  0
    2.3700  -12.1565    0.0000 C   0  0
    1.1407  -12.8580    0.0000 C   0  0
    1.5464  -13.5704    0.0000 C   0  0
  1  2  1  0
  2  3  1  0
  3  4  1  0
  4  5  1  0
  5  1  1  0
 10  6  1  0
  6  7  2  0
  7  8  1  0
  8  9  2  0
  9 11  1  0
 10 11  2  0
 11 12  1  0
 12 13  2  0
 13 14  1  0
 14 10  1  0
  9 15  1  0
 15 16  1  0
 16 17  2  0
 17 18  1  0
 18 19  2  0
 19 20  1  0
 20 21  2  0
 21 16  1  0
 13 22  1  0
 22 23  1  0
 23 24  1  0
 23 25  2  0
 19 26  1  0
 18 27  1  0
 24 28  2  0
 28 29  1  0
 29 30  1  0
 30 31  1  0
 30 34  1  0
 31 32  1  0
 32  1  1  0
  1 33  1  0
 33 34  1  0
M  END
> <chembl_id>
CHEMBL3233795

$$$$

  SciTegic09291413392D

 46 51  0  0  0  0            999 V2000
   12.8020   -8.6258    0.0000 C   0  0
   13.2145   -7.9114    0.0000 C   0  0
   14.0395   -7.9114    0.0000 C   0  0
   14.4520   -8.6258    0.0000 C   0  0
   14.0395   -9.3403    0.0000 C   0  0
   13.2145   -9.3403    0.0000 C   0  0
   11.9770   -8.6258    0.0000 S   0  0
   11.1520   -8.6258    0.0000 O   0  0
   11.9770   -9.4508    0.0000 O   0  0
   11.9770   -7.8008    0.0000 N   0  0
   15.2725   -7.1107    0.0000 C   0  0
   14.4520   -7.1969    0.0000 C   0  0
   14.1164   -6.4432    0.0000 C   0  0
   14.7295   -5.8912    0.0000 C   0  0
   15.4440   -6.3037    0.0000 S   0  0
   11.2625   -7.3883    0.0000 C   0  0
   11.2625   -6.5633    0.0000 C   0  0
   10.5480   -6.1508    0.0000 C   0  0
    9.8336   -6.5633    0.0000 C   0  0
    9.8336   -7.3883    0.0000 C   0  0
   10.5480   -7.8008    0.0000 C   0  0
    9.1191   -6.1508    0.0000 O   0  0
    6.9757   -7.3883    0.0000 N   0  0
    7.6902   -7.8008    0.0000 C   0  0
    8.4046   -7.3883    0.0000 C   0  0
    8.4046   -6.5633    0.0000 C   0  0
    7.6902   -6.1508    0.0000 C   0  0
    7.6902   -5.3258    0.0000 C   0  0
    6.9757   -4.9133    0.0000 C   0  0
    6.2612   -5.3258    0.0000 C   0  0
    6.2612   -6.1508    0.0000 C   0  0
    6.9757   -6.5633    0.0000 C   0  0
    5.5468   -4.9133    0.0000 O   0  0
    4.8323   -5.3258    0.0000 C   0  0
    4.1178   -4.9133    0.0000 C   0  0
    3.4033   -5.3258    0.0000 C   0  0
    2.6889   -4.9133    0.0000 N   0  0
    2.6889   -4.0883    0.0000 C   0  0
    1.9744   -3.6758    0.0000 C   0  0
    1.2599   -4.0883    0.0000 N   0  0
    1.2599   -4.9133    0.0000 C   0  0
    1.9744   -5.3258    0.0000 C   0  0
    0.5455   -3.6758    0.0000 C   0  0
    6.9757   -4.0883    0.0000 O   0  0
    6.2612   -3.6758    0.0000 C   0  0
   10.5480   -5.3258    0.0000 F   0  0
  1  2  1  0
  2  3  2  0
  3  4  1  0
  4  5  2  0
  5  6  1  0
  1  6  2  0
  7  8  2  0
  7  9  2  0
  7 10  1  0
  1  7  1  0
 11 12  2  0
 12 13  1  0
 13 14  2  0
 14 15  1  0
 11 15  1  0
  3 12  1  0
 16 17  1  0
 17 18  2  0
 18 19  1  0
 19 20  2  0
 20 21  1  0
 16 21  2  0
 23 24  2  0
 24 25  1  0
 25 26  2  0
 26 27  1  0
 27 28  2  0
 28 29  1  0
 29 30  2  0
 30 31  1  0
 31 32  2  0
 23 32  1  0
 27 32  1  0
 34 35  1  0
 35 36  1  0
 33 34  1  0
 37 38  1  0
 38 39  1  0
 39 40  1  0
 40 41  1  0
 41 42  1  0
 37 42  1  0
 40 43  1  0
 36 37  1  0
 30 33  1  0
 44 45  1  0
 29 44  1  0
 22 26  1  0
 19 22  1  0
 18 46  1  0
 10 16  1  0
M  END
> <chembl_id>
CHEMBL3263964

$$$$

  SciTegic02271514372D

 25 29  0  0  0  0            999 V2000
    9.6823   -5.0163    0.0000 N   0  0
    9.6823   -4.1913    0.0000 C   0  0
    8.9679   -3.7788    0.0000 N   0  0
    8.2534   -4.1913    0.0000 C   0  0
    8.2534   -5.0163    0.0000 C   0  0
    7.5389   -5.4288    0.0000 C   0  0
    7.5389   -6.2538    0.0000 C   0  0
    8.2534   -6.6663    0.0000 C   0  0
    8.9679   -6.2538    0.0000 C   0  0
    8.9679   -5.4288    0.0000 C   0  0
    8.7963   -2.9719    0.0000 N   0  0
    7.9759   -2.8856    0.0000 C   0  0
    7.6403   -3.6393    0.0000 N   0  0
    7.5634   -2.1712    0.0000 N   0  0
    6.8245   -5.0163    0.0000 F   0  0
   10.3968   -3.7788    0.0000 C   0  0
   13.3248   -5.2713    0.0000 O   0  0
   13.8098   -4.6038    0.0000 C   0  0
   13.3248   -3.9364    0.0000 O   0  0
   12.5402   -4.1913    0.0000 C   0  0
   12.5402   -5.0163    0.0000 C   0  0
   11.8257   -3.7788    0.0000 C   0  0
   11.1113   -4.1913    0.0000 C   0  0
   11.1113   -5.0163    0.0000 C   0  0
   11.8257   -5.4288    0.0000 C   0  0
  1  2  2  0
  2  3  1  0
  3  4  1  0
  4  5  1  0
  5  6  1  0
  6  7  2  0
  7  8  1  0
  8  9  2  0
  9 10  1  0
  1 10  1  0
  5 10  2  0
 11 12  2  0
 12 13  1  0
  3 11  1  0
  4 13  2  0
 12 14  1  0
  6 15  1  0
 17 18  1  0
 18 19  1  0
 19 20  1  0
 20 21  1  0
 17 21  1  0
 22 23  1  0
 23 24  2  0
 24 25  1  0
 21 25  2  0
 20 22  2  0
 16 23  1  0
  2 16  1  0
M  END
> <chembl_id>
CHEMBL3309990

$$$$

  SciTegic05221516342D

 42 46  0  0  0  0            999 V2000
   22.6513  -23.8740    0.0000 C   0  0
   23.0599  -23.1649    0.0000 C   0  0
   22.6513  -22.4599    0.0000 C   0  0
   23.0599  -21.7508    0.0000 C   0  0
   23.0599  -24.5789    0.0000 O   0  0
   21.8341  -23.8740    0.0000 N   0  0
   23.8770  -21.7508    0.0000 N   0  0
   24.2856  -21.0417    0.0000 C   0  0
   25.1028  -21.0417    0.0000 C   0  0
   25.5114  -21.7508    0.0000 C   0  0
   25.1028  -22.4599    0.0000 C   0  0
   24.2856  -22.4599    0.0000 C   0  0
   23.8770  -23.1649    0.0000 F   0  0
   20.1997  -26.7021    0.0000 N   0  0
   19.3825  -26.7021    0.0000 C   0  0
   18.9739  -25.9971    0.0000 N   0  0
   19.3825  -25.2880    0.0000 C   0  0
   20.1997  -25.2880    0.0000 C   0  0
   20.6083  -24.5789    0.0000 C   0  0
   21.4255  -24.5789    0.0000 C   0  0
   21.8341  -25.2880    0.0000 C   0  0
   21.4255  -25.9971    0.0000 C   0  0
   20.6083  -25.9971    0.0000 C   0  0
   22.6513  -25.2880    0.0000 O   0  0
   23.0599  -25.9971    0.0000 C   0  0
   23.8770  -25.9971    0.0000 C   0  0
   18.9739  -24.5789    0.0000 N   0  0
   18.1567  -24.5789    0.0000 C   0  0
   17.7481  -25.2880    0.0000 C   0  0
   16.9309  -25.2880    0.0000 C   0  0
   16.5223  -24.5789    0.0000 C   0  0
   16.9309  -23.8740    0.0000 C   0  0
   17.7481  -23.8740    0.0000 C   0  0
   15.7051  -24.5789    0.0000 O   0  0
   15.7051  -23.1649    0.0000 C   0  0
   15.2965  -23.8740    0.0000 C   0  0
   14.4793  -23.8740    0.0000 C   0  0
   14.0708  -23.1649    0.0000 C   0  0
   14.4793  -22.4599    0.0000 C   0  0
   15.2965  -22.4599    0.0000 N   0  0
   14.0708  -21.7508    0.0000 C   0  0
   16.5223  -25.9971    0.0000 Cl  0  0
  1  2  1  0
  2  3  2  0
  3  4  1  0
  1  5  2  0
  1  6  1  0
  7  8  1  0
  8  9  1  0
  9 10  1  0
 10 11  1  0
 11 12  1  0
  7 12  1  0
  4  7  1  0
  2 13  1  0
 14 15  1  0
 15 16  2  0
 16 17  1  0
 17 18  2  0
 18 19  1  0
 19 20  2  0
 20 21  1  0
 21 22  2  0
 22 23  1  0
 14 23  2  0
 18 23  1  0
 25 26  1  0
 24 25  1  0
 21 24  1  0
 28 29  1  0
 29 30  2  0
 30 31  1  0
 31 32  2  0
 32 33  1  0
 28 33  2  0
 35 36  1  0
 36 37  2  0
 37 38  1  0
 38 39  2  0
 39 40  1  0
 35 40  2  0
 39 41  1  0
 34 36  1  0
 31 34  1  0
 30 42  1  0
 27 28  1  0
 17 27  1  0
  6 20  1  0
M  END
> <chembl_id>
CHEMBL3357647

$$$$

  SciTegic12201615542D

 40 45  0  0  0  0            999 V2000
    1.4499    7.7742    0.0000 C   0  0
    0.5265    8.9573    0.0000 C   0  0
    0.9759   10.0700    0.0000 C   0  0
    2.6383    7.9411    0.0000 O   0  0
    0.8879    6.3826    0.0000 N   0  0
    1.8114    5.1995    0.0000 C   0  0
    1.2517    3.8078    0.0000 C   0  0
    2.1749    2.6315    0.0000 C   0  0
    3.6621    2.8384    0.0000 C   0  0
    4.2218    4.2301    0.0000 C   0  0
    3.2965    5.4106    0.0000 C   0  0
   -1.0028   -1.5132    0.0000 C   0  0
    0.2917   -0.7475    0.0000 C   0  0
    0.2917    0.7475    0.0000 C   0  0
   -1.0028    1.5132    0.0000 C   0  0
   -2.3155    0.7475    0.0000 C   0  0
   -2.3155   -0.7475    0.0000 C   0  0
    2.5889    0.0182    0.0000 C   0  0
    1.7138   -1.2033    0.0000 N   0  0
    1.7138    1.2033    0.0000 N   0  0
    4.0896    0.0290    0.0000 C   0  0
    4.9234    1.2700    0.0000 C   0  0
    4.7453   -1.3220    0.0000 N   0  0
    6.4199    1.1671    0.0000 N   0  0
    7.0791   -0.1803    0.0000 C   0  0
    6.2418   -1.4248    0.0000 C   0  0
    7.2286   -5.1568    0.0000 N   0  0
    8.5770   -4.4998    0.0000 N   0  0
    8.3688   -3.0143    0.0000 C   0  0
    6.9013   -2.7729    0.0000 C   0  0
    6.1870   -4.0774    0.0000 C   0  0
    6.9674   -6.6347    0.0000 C   0  0
    4.3957    2.3477    0.0000 N   0  0
    8.0374   -7.6789    0.0000 C   0  0
    7.6659   -9.1322    0.0000 C   0  0
    6.2216   -9.5371    0.0000 N   0  0
    5.1488   -8.4888    0.0000 C   0  0
    5.5202   -7.0355    0.0000 C   0  0
    5.8470  -10.9905    0.0000 C   0  0
    4.6911  -11.3128    0.0000 C   0  0
  1  2  1  0
  2  3  2  0
  1  4  2  0
  1  5  1  0
  6  7  1  0
  7  8  2  0
  8  9  1  0
  9 10  2  0
 10 11  1  0
  6 11  2  0
 12 13  1  0
 13 14  2  0
 14 15  1  0
 15 16  2  0
 16 17  1  0
 12 17  2  0
 18 19  2  0
 18 20  1  0
 13 19  1  0
 14 20  1  0
 21 22  1  0
 21 23  2  0
 22 24  2  0
 24 25  1  0
 25 26  2  0
 23 26  1  0
 27 28  1  0
 28 29  2  0
 29 30  1  0
 30 31  2  0
 27 31  1  0
 27 32  1  0
 26 30  1  0
 22 33  1  0
 18 21  1  0
  8 20  1  0
  5  6  1  0
 32 34  1  0
 32 38  1  0
 34 35  1  0
 35 36  1  0
 36 37  1  0
 37 38  1  0
 36 39  1  0
 39 40  1  0
M  END
> <chembl_id>
CHEMBL3814376

$$$$

  SciTegic09261414462D

 30 33  0  0  0  0            999 V2000
   31.8537   -5.1122    0.0000 N   0  0
   32.5633   -4.7027    0.0000 C   0  0
   32.5605   -3.8801    0.0000 N   0  0
   31.8519   -3.4748    0.0000 C   0  0
   31.1456   -4.7032    0.0000 C   0  0
   31.1469   -3.8867    0.0000 C   0  0
   30.3707   -3.6332    0.0000 C   0  0
   29.8897   -4.2931    0.0000 C   0  0
   30.3687   -4.9543    0.0000 S   0  0
   31.8481   -2.6576    0.0000 N   0  0
   32.5539   -2.2458    0.0000 C   0  0
   33.2614   -2.6559    0.0000 C   0  0
   33.9667   -2.2448    0.0000 C   0  0
   33.9634   -1.4267    0.0000 C   0  0
   33.2488   -1.0215    0.0000 C   0  0
   32.5464   -1.4350    0.0000 C   0  0
   29.0725   -4.2919    0.0000 N   0  0
   28.6649   -3.5836    0.0000 C   0  0
   27.8477   -3.5824    0.0000 C   0  0
   29.0745   -2.8765    0.0000 O   0  0
   34.6686   -1.0139    0.0000 F   0  0
   34.6761   -2.6504    0.0000 Cl  0  0
   27.4402   -2.8741    0.0000 C   0  0
   26.6230   -2.8729    0.0000 C   0  0
   26.2154   -2.1646    0.0000 N   0  0
   26.6316   -1.4575    0.0000 C   0  0
   26.2275   -0.7513    0.0000 C   0  0
   25.4099   -0.7459    0.0000 O   0  0
   24.9982   -1.4528    0.0000 C   0  0
   25.4039   -2.1652    0.0000 C   0  0
  5  1  1  0
  1  2  2  0
  2  3  1  0
  3  4  2  0
  4  6  1  0
  5  6  2  0
  6  7  1  0
  7  8  2  0
  8  9  1  0
  9  5  1  0
  4 10  1  0
 10 11  1  0
 11 12  2  0
 12 13  1  0
 13 14  2  0
 14 15  1  0
 15 16  2  0
 16 11  1  0
  8 17  1  0
 17 18  1  0
 18 19  1  0
 18 20  2  0
 14 21  1  0
 13 22  1  0
 19 23  2  0
 23 24  1  0
 24 25  1  0
 25 26  1  0
 25 30  1  0
 26 27  1  0
 27 28  1  0
 28 29  1  0
 29 30  1  0
M  END
> <chembl_id>
CHEMBL3233792

$$$$

  SciTegic12201611512D

 29 33  0  0  0  0            999 V2000
   -2.1332   -2.2973    0.0000 N   0  0
   -3.4277   -1.5498    0.0000 C   0  0
   -3.4277    0.0000    0.0000 N   0  0
   -2.1332    0.6928    0.0000 C   0  0
   -0.8205    0.0000    0.0000 C   0  0
    0.4558    0.6928    0.0000 C   0  0
    1.7503    0.0000    0.0000 C   0  0
    1.7503   -1.5498    0.0000 C   0  0
    0.4558   -2.2973    0.0000 C   0  0
   -0.8205   -1.5498    0.0000 C   0  0
    0.4558    2.1879    0.0000 O   0  0
    3.0631    0.6928    0.0000 O   0  0
    3.0631    2.1879    0.0000 C   0  0
    1.7503    2.9537    0.0000 C   0  0
   -2.1454    2.1947    0.0000 N   0  0
    3.0410   -2.3153    0.0000 O   0  0
    3.0239   -3.8160    0.0000 C   0  0
   -3.4508    2.9353    0.0000 C   0  0
   -3.4653    4.4352    0.0000 C   0  0
   -4.7714    5.1728    0.0000 C   0  0
   -6.0632    4.4104    0.0000 C   0  0
   -6.0489    2.9104    0.0000 C   0  0
   -4.7427    2.1729    0.0000 C   0  0
    4.2260   -4.6919    0.0000 C   0  0
    3.7436   -6.1122    0.0000 C   0  0
    2.2437   -6.0923    0.0000 O   0  0
    1.7991   -4.6597    0.0000 C   0  0
   -4.7858    6.6735    0.0000 C   0  0
   -4.7973    7.8735    0.0000 C   0  0
  1  2  1  0
  2  3  2  0
  3  4  1  0
  4  5  2  0
  5  6  1  0
  6  7  2  0
  7  8  1  0
  8  9  2  0
  9 10  1  0
  1 10  2  0
  5 10  1  0
 12 13  1  0
 13 14  1  0
 11 14  1  0
  6 11  1  0
  7 12  1  0
  4 15  1  0
 16 17  1  0
  8 16  1  0
 18 19  1  0
 19 20  2  0
 20 21  1  0
 21 22  2  0
 22 23  1  0
 18 23  2  0
 15 18  1  0
 17 24  1  0
 24 25  1  0
 25 26  1  0
 26 27  1  0
 27 17  1  0
 20 28  1  0
 28 29  3  0
M  END
> <chembl_id>
CHEMBL3806170

$$$$

  SciTegic12201610342D

 38 41  0  0  0  0            999 V2000
    2.5951   -3.0039    0.0000 C   0  0
    3.8933   -3.7570    0.0000 C   0  0
    3.8916   -4.9570    0.0000 C   0  0
    1.5548   -3.6021    0.0000 O   0  0
    2.5973   -1.5031    0.0000 N   0  0
    1.2990   -0.7500    0.0000 C   0  0
    1.2990    0.7500    0.0000 C   0  0
    0.0000    1.5000    0.0000 C   0  0
   -1.2990    0.7500    0.0000 C   0  0
   -1.2990   -0.7500    0.0000 C   0  0
    0.0000   -1.5000    0.0000 C   0  0
   -0.0031    3.0008    0.0000 O   0  0
   -3.9021    3.7404    0.0000 C   0  0
   -2.6005    2.9949    0.0000 N   0  0
   -1.3039    3.7494    0.0000 C   0  0
   -1.3092    5.2494    0.0000 C   0  0
   -2.6108    5.9949    0.0000 C   0  0
   -3.9073    5.2404    0.0000 N   0  0
   -0.0136    6.0070    0.0000 S   0  0
   -0.0195    7.2070    0.0000 C   0  0
   -5.2008    2.9882    0.0000 N   0  0
   -6.5021    3.7360    0.0000 C   0  0
   -7.8012    2.9860    0.0000 C   0  0
   -9.1002    3.7360    0.0000 C   0  0
   -9.1002    5.2360    0.0000 C   0  0
   -7.8012    5.9860    0.0000 C   0  0
   -6.5021    5.2360    0.0000 C   0  0
   -7.8043    1.4852    0.0000 O   0  0
   -8.8444    0.8867    0.0000 C   0  0
  -10.3999    5.9864    0.0000 N   0  0
  -11.7002    5.2385    0.0000 C   0  0
  -12.9981    5.9906    0.0000 C   0  0
  -12.9957    7.4906    0.0000 N   0  0
  -11.6955    8.2385    0.0000 C   0  0
  -10.3976    7.4864    0.0000 C   0  0
  -14.2927    8.2457    0.0000 C   0  0
  -14.2891    9.4457    0.0000 O   0  0
  -15.3339    7.6492    0.0000 C   0  0
  1  2  1  0
  2  3  2  0
  1  4  2  0
  1  5  1  0
  6  7  1  0
  7  8  2  0
  8  9  1  0
  9 10  2  0
 10 11  1  0
  6 11  2  0
 13 14  1  0
 14 15  2  0
 15 16  1  0
 16 17  2  0
 17 18  1  0
 13 18  2  0
 19 20  1  0
 16 19  1  0
 22 23  1  0
 23 24  2  0
 24 25  1  0
 25 26  2  0
 26 27  1  0
 22 27  2  0
 28 29  1  0
 23 28  1  0
 30 31  1  0
 31 32  1  0
 32 33  1  0
 33 34  1  0
 34 35  1  0
 30 35  1  0
 36 37  2  0
 36 38  1  0
 33 36  1  0
 25 30  1  0
 21 22  1  0
 13 21  1  0
 12 15  1  0
  8 12  1  0
  5  6  1  0
M  END
> <chembl_id>
CHEMBL3798501

$$$$

  SciTegic01181116592D

 32 35  0  0  0  0            999 V2000
    8.5300  -23.4724    0.0000 N   0  0
    9.2465  -23.0589    0.0000 C   0  0
    9.2437  -22.2283    0.0000 N   0  0
    8.5282  -21.8192    0.0000 C   0  0
    8.5257  -20.9941    0.0000 N   0  0
    7.8151  -23.0594    0.0000 C   0  0
    7.8117  -22.2350    0.0000 C   0  0
    7.0320  -23.3173    0.0000 S   0  0
    6.5447  -22.6524    0.0000 C   0  0
    7.0264  -21.9851    0.0000 C   0  0
    6.6912  -21.2385    0.0000 C   0  0
    5.8734  -21.1528    0.0000 C   0  0
    5.3918  -21.8196    0.0000 N   0  0
    5.7278  -22.5730    0.0000 C   0  0
    9.2391  -20.5793    0.0000 C   0  0  2  0  0  0
    9.2366  -19.7542    0.0000 C   0  0
    4.5631  -21.8195    0.0000 C   0  0
    4.1504  -22.5340    0.0000 O   0  0
    4.1506  -21.1048    0.0000 C   0  0
    4.5633  -20.3903    0.0000 C   0  0
    4.1507  -19.6757    0.0000 C   0  0
    4.5634  -18.9612    0.0000 N   0  0
    5.3890  -18.9636    0.0000 C   0  0
    4.1494  -18.2490    0.0000 C   0  0
    9.9549  -20.9898    0.0000 C   0  0
    9.9499  -19.3396    0.0000 O   0  0
   10.6682  -20.5751    0.0000 C   0  0
   11.3820  -20.9878    0.0000 C   0  0
   12.0948  -20.5737    0.0000 C   0  0
   12.0928  -19.7478    0.0000 C   0  0
   11.3720  -19.3376    0.0000 C   0  0
   10.6622  -19.7539    0.0000 C   0  0
  5 15  1  0
 15 16  1  6
  7 10  1  0
 13 17  1  0
  9  8  1  0
 17 18  2  0
  8  6  1  0
 17 19  1  0
  9 10  2  0
 19 20  2  0
  3  4  2  0
 20 21  1  0
  4  7  1  0
 21 22  1  0
 22 23  1  0
  1  2  2  0
  4  5  1  0
 22 24  1  0
  6  7  2  0
 15 25  1  0
  6  1  1  0
 16 26  1  0
  9 14  1  0
 25 27  1  0
 10 11  1  0
 27 28  2  0
 11 12  1  0
 28 29  1  0
 12 13  1  0
 29 30  2  0
 13 14  1  0
 30 31  1  0
  2  3  1  0
 31 32  2  0
 32 27  1  0
M  END
> <chembl_id>
CHEMBL1271618

$$$$

  SciTegic12091611192D

 27 31  0  0  0  0            999 V2000
   -3.6217    1.4865    0.0000 N   0  0
   -7.5133    0.6990    0.0000 C   0  0
   -6.2219    1.4621    0.0000 N   0  0
   -4.9153    0.7255    0.0000 C   0  0
   -4.9001   -0.7745    0.0000 C   0  0
   -6.1914   -1.5377    0.0000 C   0  0
   -7.4980   -0.8010    0.0000 N   0  0
   -8.8205    1.4361    0.0000 N   0  0
   -8.8383    2.9360    0.0000 C   0  0
  -10.1461    3.6707    0.0000 C   0  0
  -11.4362    2.9055    0.0000 C   0  0
  -11.4185    1.4056    0.0000 C   0  0
  -10.1108    0.6709    0.0000 C   0  0
  -12.7462    3.6378    0.0000 O   0  0
  -13.7774    3.0242    0.0000 C   0  0
   -1.0028   -1.5132    0.0000 C   0  0
    0.2917   -0.7475    0.0000 C   0  0
    0.2917    0.7475    0.0000 C   0  0
   -1.0028    1.5132    0.0000 C   0  0
   -2.3155    0.7475    0.0000 C   0  0
   -2.3155   -0.7475    0.0000 N   0  0
    2.5889    0.0182    0.0000 C   0  0
    1.7138   -1.2033    0.0000 N   0  0
    1.7138    1.2033    0.0000 N   0  0
    2.1749    2.6315    0.0000 C   0  0
    1.9486    4.0312    0.0000 C   0  0
    3.3328    3.4533    0.0000 C   0  0
  2  3  1  0
  3  4  2  0
  4  5  1  0
  5  6  2  0
  6  7  1  0
  2  7  2  0
  8  9  1  0
  9 10  1  0
 10 11  1  0
 11 12  1  0
 12 13  1  0
  8 13  1  0
 14 15  1  0
 11 14  1  0
  2  8  1  0
  1  4  1  0
 16 17  1  0
 17 18  2  0
 18 19  1  0
 19 20  2  0
 20 21  1  0
 16 21  2  0
 22 23  2  0
 22 24  1  0
 17 23  1  0
 18 24  1  0
  1 20  1  0
 24 25  1  0
 26 25  1  0
 27 26  1  0
 25 27  1  0
M  END
> <chembl_id>
CHEMBL3736178

$$$$

  SciTegic12091611252D

 35 40  0  0  0  0            999 V2000
    0.0000   -0.3300    0.0000 N   0  0
    1.2600    0.4000    0.0000 C   0  0
    2.5200   -0.3300    0.0000 C   0  0
    3.8000    0.4000    0.0000 C   0  0
    3.8000    1.8600    0.0000 C   0  0
    2.5200    2.6000    0.0000 C   0  0
    1.2600    1.8600    0.0000 C   0  0
   -1.2800    1.8600    0.0000 C   0  0
   -2.5200    2.6000    0.0000 C   0  0
   -3.7800    1.8600    0.0000 C   0  0
   -3.7800    0.4000    0.0000 C   0  0
   -2.5200   -0.3300    0.0000 C   0  0
   -1.2800    0.4000    0.0000 C   0  0
    5.0500    2.5700    0.0000 C   0  0
    6.3600    1.8600    0.0000 C   0  0
    6.3600    0.4000    0.0000 C   0  0
    5.0500   -0.3600    0.0000 C   0  0
   -5.0802   -0.3506    0.0000 C   0  0
   -6.1194   -0.9505    0.0000 N   0  0
    2.5159    3.8000    0.0000 O   0  0
   10.2615   -1.8442    0.0000 N   0  0
    8.9639   -2.5966    0.0000 C   0  0
    7.6634   -1.8491    0.0000 C   0  0
    7.6605   -0.3490    0.0000 C   0  0
    8.9582    0.4034    0.0000 C   0  0
   10.2587   -0.3442    0.0000 C   0  0
   11.5642   -2.5894    0.0000 C   0  0
   14.1646   -2.5777    0.0000 C   0  0
   12.8615   -1.8347    0.0000 C   0  0
   12.8535   -0.3347    0.0000 C   0  0
   14.1485    0.4223    0.0000 C   0  0
   15.4515   -0.3207    0.0000 O   0  0
   15.4596   -1.8207    0.0000 C   0  0
    3.5712   -0.9087    0.0000 C   0  0
    1.4649   -0.9017    0.0000 C   0  0
  1  2  1  0
  2  3  1  0
  3  4  1  0
  4  5  1  0
  5  6  1  0
  6  7  1  0
  2  7  2  0
  7  8  1  0
  8  9  1  0
  9 10  2  0
 10 11  1  0
 11 12  2  0
 12 13  1  0
  8 13  2  0
  1 13  1  0
 14 15  1  0
 15 16  2  0
 16 17  1  0
  4 17  2  0
  5 14  2  0
 18 19  3  0
 11 18  1  0
  6 20  2  0
 21 22  1  0
 22 23  1  0
 23 24  1  0
 24 25  1  0
 25 26  1  0
 21 26  1  0
 28 29  1  0
 29 30  1  0
 30 31  1  0
 31 32  1  0
 32 33  1  0
 28 33  1  0
 27 29  1  0
 21 27  1  0
 16 24  1  0
  3 34  1  0
  3 35  1  0
M  END
> <chembl_id>
CHEMBL3735648

$$$$

  SciTegic12201616162D

 31 34  0  0  0  0            999 V2000
    5.1929   -0.7441    0.0000 C   0  0
    5.1908    0.4559    0.0000 C   0  0
    6.2333   -1.3420    0.0000 O   0  0
    3.8942   -1.4964    0.0000 N   0  0
   -1.2964    1.4973    0.0000 N   0  0
   -2.6111    0.7486    0.0000 C   0  0
   -2.6111   -0.7486    0.0000 N   0  0
   -1.2964   -1.4973    0.0000 C   0  0
    0.0000   -0.7486    0.0000 C   0  0
    1.2964   -1.4973    0.0000 C   0  0
    2.5929   -0.7486    0.0000 C   0  0
    2.5929    0.7486    0.0000 C   0  0
    1.2964    1.4973    0.0000 C   0  0
    0.0000    0.7486    0.0000 C   0  0
   -1.2907   -2.9981    0.0000 N   0  0
   -2.5870   -3.7544    0.0000 C   0  0
   -2.5835   -5.2544    0.0000 C   0  0
   -3.8807   -6.0076    0.0000 C   0  0
   -5.1815   -5.2608    0.0000 C   0  0
   -5.1852   -3.7608    0.0000 C   0  0
   -3.8880   -3.0076    0.0000 C   0  0
   -6.4810   -6.0117    0.0000 O   0  0
   -7.7815   -5.2626    0.0000 C   0  0
   -9.0810   -6.0135    0.0000 C   0  0
  -10.3819   -5.2667    0.0000 C   0  0
  -11.6791   -6.0199    0.0000 C   0  0
  -11.6755   -7.5199    0.0000 C   0  0
  -10.3746   -8.2667    0.0000 C   0  0
   -9.0774   -7.5136    0.0000 C   0  0
  -12.7198   -5.4224    0.0000 F   0  0
   -3.8777   -7.2076    0.0000 Cl  0  0
  1  2  1  0
  1  3  2  0
  1  4  1  0
  5  6  1  0
  6  7  2  0
  7  8  1  0
  8  9  2  0
  9 10  1  0
 10 11  2  0
 11 12  1  0
 12 13  2  0
 13 14  1  0
  5 14  2  0
  9 14  1  0
 16 17  1  0
 17 18  2  0
 18 19  1  0
 19 20  2  0
 20 21  1  0
 16 21  2  0
 23 24  1  0
 24 25  1  0
 25 26  2  0
 26 27  1  0
 27 28  2  0
 28 29  1  0
 24 29  2  0
 26 30  1  0
 22 23  1  0
 19 22  1  0
 18 31  1  0
 15 16  1  0
  8 15  1  0
  4 11  1  0
M  END
> <chembl_id>
CHEMBL3814846

$$$$

  SciTegic09081514192D

 40 45  0  0  0  0            999 V2000
   -7.7773    5.2709    0.0000 N   0  0
   -6.4757    6.0180    0.0000 C   0  0
   -5.1785    5.2648    0.0000 N   0  0
   -3.8775    6.0115    0.0000 N   0  0
   -3.8739    7.5115    0.0000 C   0  0
   -5.1711    8.2648    0.0000 C   0  0
   -6.4720    7.5180    0.0000 C   0  0
   -2.5812    5.2552    0.0000 C   0  0
   -2.5870    3.7544    0.0000 C   0  0
   -2.8332    8.1090    0.0000 O   0  0
   -9.1295    5.8952    0.0000 C   0  0
  -10.1162    4.8012    0.0000 C   0  0
   -7.9210    3.7969    0.0000 C   0  0
   -9.3859    3.4986    0.0000 C   0  0
   -9.8781    2.0775    0.0000 C   0  0
   -8.8659    0.9439    0.0000 C   0  0
   -7.4009    1.2421    0.0000 C   0  0
   -6.9124    2.6812    0.0000 C   0  0
   -6.6077    0.3417    0.0000 F   0  0
   -1.2907    2.9981    0.0000 O   0  0
   -1.2964    1.4973    0.0000 C   0  0
   -2.6111    0.7486    0.0000 C   0  0
   -2.6111   -0.7486    0.0000 C   0  0
   -1.2964   -1.4973    0.0000 N   0  0
    0.0000    0.7486    0.0000 C   0  0
    0.0000   -0.7486    0.0000 C   0  0
    1.2964   -1.4973    0.0000 C   0  0
    2.5929   -0.7486    0.0000 C   0  0
    2.5929    0.7486    0.0000 C   0  0
    1.2964    1.4973    0.0000 C   0  0
    3.8942   -1.4964    0.0000 O   0  0
    5.1929   -0.7441    0.0000 C   0  0
    6.4942   -1.4919    0.0000 C   0  0
    7.7928   -0.7396    0.0000 C   0  0
    9.0941   -1.4873    0.0000 N   0  0
   10.3932   -0.7374    0.0000 C   0  0
   11.6923   -1.4873    0.0000 C   0  0
   11.6923   -2.9873    0.0000 O   0  0
   10.3933   -3.7374    0.0000 C   0  0
    9.0942   -2.9874    0.0000 C   0  0
  1  2  1  0
  2  3  2  0
  3  4  1  0
  4  5  1  0
  5  6  1  0
  6  7  2  0
  7  2  1  0
  4  8  1  0
  8  9  1  0
  5 10  2  0
  1 11  1  0
 11 12  2  0
 12 14  1  0
 13  1  1  0
 13 14  2  0
 14 15  1  0
 15 16  2  0
 16 17  1  0
 17 18  2  0
 18 13  1  0
 17 19  1  0
  9 20  1  0
 20 21  1  0
 21 22  2  0
 22 23  1  0
 23 24  2  0
 24 26  1  0
 25 21  1  0
 25 26  1  0
 26 27  2  0
 27 28  1  0
 28 29  2  0
 29 30  1  0
 30 25  2  0
 28 31  1  0
 31 32  1  0
 32 33  1  0
 33 34  1  0
 34 35  1  0
 35 36  1  0
 35 40  1  0
 36 37  1  0
 37 38  1  0
 38 39  1  0
 39 40  1  0
M  END
> <chembl_id>
CHEMBL3417489

$$$$

  SciTegic12201611512D

 27 30  0  0  0  0            999 V2000
   -2.1332   -2.2973    0.0000 N   0  0
   -3.4277   -1.5498    0.0000 C   0  0
   -3.4277    0.0000    0.0000 N   0  0
   -2.1332    0.6928    0.0000 C   0  0
   -0.8205    0.0000    0.0000 C   0  0
    0.4558    0.6928    0.0000 C   0  0
    1.7503    0.0000    0.0000 C   0  0
    1.7503   -1.5498    0.0000 C   0  0
    0.4558   -2.2973    0.0000 C   0  0
   -0.8205   -1.5498    0.0000 C   0  0
    0.4558    2.1879    0.0000 O   0  0
    3.0631    0.6928    0.0000 O   0  0
    3.0631    2.1879    0.0000 C   0  0
    1.7503    2.9537    0.0000 C   0  0
   -2.1454    2.1947    0.0000 N   0  0
    3.0410   -2.3153    0.0000 O   0  0
    3.0239   -3.8160    0.0000 C   0  0
    4.0559   -4.4284    0.0000 C   0  0
    1.9778   -4.4039    0.0000 C   0  0
   -3.4508    2.9353    0.0000 C   0  0
   -3.4653    4.4352    0.0000 C   0  0
   -4.7714    5.1728    0.0000 C   0  0
   -6.0632    4.4104    0.0000 C   0  0
   -6.0489    2.9104    0.0000 C   0  0
   -4.7427    2.1729    0.0000 C   0  0
   -4.7858    6.6735    0.0000 C   0  0
   -4.7973    7.8735    0.0000 C   0  0
  1  2  1  0
  2  3  2  0
  3  4  1  0
  4  5  2  0
  5  6  1  0
  6  7  2  0
  7  8  1  0
  8  9  2  0
  9 10  1  0
  1 10  2  0
  5 10  1  0
 12 13  1  0
 13 14  1  0
 11 14  1  0
  6 11  1  0
  7 12  1  0
  4 15  1  0
 17 18  1  0
 17 19  1  0
 16 17  1  0
  8 16  1  0
 20 21  1  0
 21 22  2  0
 22 23  1  0
 23 24  2  0
 24 25  1  0
 20 25  2  0
 26 27  3  0
 22 26  1  0
 15 20  1  0
M  END
> <chembl_id>
CHEMBL3805509

$$$$

  SciTegic04091414352D

 34 37  0  0  0  0            999 V2000
    7.7027   -8.0040    0.0000 N   0  0
    8.4055   -8.4219    0.0000 C   0  0
    8.3949   -9.2395    0.0000 O   0  0
    9.1188   -8.0223    0.0000 N   0  0
    9.8216   -8.4402    0.0000 C   0  0
   10.5349   -8.0406    0.0000 C   0  0
   11.2377   -8.4585    0.0000 N   0  0
   11.9511   -8.0589    0.0000 C   0  0
   11.2272   -9.2761    0.0000 C   0  0
    4.8493   -9.6026    0.0000 N   0  0
    4.1466   -9.1846    0.0000 C   0  0
    4.1571   -8.3670    0.0000 N   0  0
    4.8705   -7.9674    0.0000 C   0  0
    5.5732   -8.3853    0.0000 C   0  0
    6.2866   -7.9857    0.0000 C   0  0
    6.9894   -8.4036    0.0000 C   0  0
    6.9788   -9.2212    0.0000 C   0  0
    6.2655   -9.6209    0.0000 C   0  0
    5.5627   -9.2029    0.0000 C   0  0
    7.6816   -9.6392    0.0000 O   0  0
    7.2460  -11.7096    0.0000 O   0  0
    7.0034  -10.9288    0.0000 C   0  0
    7.6710  -10.4568    0.0000 C   0  0  2  0  0  0
    8.3263  -10.9459    0.0000 C   0  0
    8.0636  -11.7202    0.0000 C   0  0
    4.8810   -7.1498    0.0000 N   0  0
    4.1782   -6.7318    0.0000 C   0  0
    3.4649   -7.1315    0.0000 C   0  0
    2.7621   -6.7135    0.0000 C   0  0
    2.7727   -5.8959    0.0000 C   0  0
    3.4860   -5.4963    0.0000 C   0  0
    4.1888   -5.9142    0.0000 C   0  0
    2.0699   -5.4780    0.0000 F   0  0
    2.0488   -7.1132    0.0000 Cl  0  0
  1  2  1  0
  2  3  2  0
  2  4  1  0
  5  6  1  0
  7  8  1  0
  7  9  1  0
  6  7  1  0
  4  5  1  0
 10 11  1  0
 11 12  2  0
 12 13  1  0
 13 14  2  0
 14 15  1  0
 15 16  2  0
 16 17  1  0
 17 18  2  0
 18 19  1  0
 10 19  2  0
 14 19  1  0
 21 22  1  0
 22 23  1  0
 23 24  1  0
 24 25  1  0
 21 25  1  0
 23 20  1  1
 17 20  1  0
 27 28  1  0
 28 29  2  0
 29 30  1  0
 30 31  2  0
 31 32  1  0
 27 32  2  0
 30 33  1  0
 29 34  1  0
 26 27  1  0
 13 26  1  0
  1 16  1  0
M  END
> <chembl_id>
CHEMBL3092306

$$$$

  SciTegic04091414352D

 32 35  0  0  0  0            999 V2000
    7.9009   -4.3445    0.0000 N   0  0
    8.6081   -4.7550    0.0000 C   0  0
    8.6063   -5.5726    0.0000 O   0  0
    9.3172   -4.3477    0.0000 N   0  0
   10.0244   -4.7581    0.0000 C   0  0
   10.7334   -4.3509    0.0000 C   0  0
   11.4406   -4.7613    0.0000 O   0  0
    5.0648   -5.9735    0.0000 N   0  0
    4.3576   -5.5631    0.0000 C   0  0
    4.3594   -4.7454    0.0000 N   0  0
    5.0684   -4.3382    0.0000 C   0  0
    5.7756   -4.7486    0.0000 C   0  0
    6.4847   -4.3414    0.0000 C   0  0
    7.1919   -4.7518    0.0000 C   0  0
    7.1900   -5.5694    0.0000 C   0  0
    6.4810   -5.9767    0.0000 C   0  0
    5.7738   -5.5663    0.0000 C   0  0
    7.8972   -5.9799    0.0000 O   0  0
    7.4838   -8.0549    0.0000 O   0  0
    7.2328   -7.2767    0.0000 C   0  0
    7.8954   -6.7975    0.0000 C   0  0  2  0  0  0
    8.5558   -7.2796    0.0000 C   0  0
    8.3014   -8.0567    0.0000 C   0  0
    5.0703   -3.5205    0.0000 N   0  0
    4.3631   -3.1101    0.0000 C   0  0
    3.6540   -3.5173    0.0000 C   0  0
    2.9468   -3.1069    0.0000 C   0  0
    2.9487   -2.2892    0.0000 C   0  0
    3.6577   -1.8820    0.0000 C   0  0
    4.3649   -2.2924    0.0000 C   0  0
    2.2415   -1.8788    0.0000 F   0  0
    2.2378   -3.5142    0.0000 Cl  0  0
  1  2  1  0
  2  3  2  0
  2  4  1  0
  5  6  1  0
  6  7  1  0
  4  5  1  0
  8  9  1  0
  9 10  2  0
 10 11  1  0
 11 12  2  0
 12 13  1  0
 13 14  2  0
 14 15  1  0
 15 16  2  0
 16 17  1  0
  8 17  2  0
 12 17  1  0
 19 20  1  0
 20 21  1  0
 21 22  1  0
 22 23  1  0
 19 23  1  0
 21 18  1  1
 15 18  1  0
 25 26  1  0
 26 27  2  0
 27 28  1  0
 28 29  2  0
 29 30  1  0
 25 30  2  0
 28 31  1  0
 27 32  1  0
 24 25  1  0
 11 24  1  0
  1 14  1  0
M  END
> <chembl_id>
CHEMBL3092322

$$$$

  SciTegic12161615062D

 32 35  0  0  0  0            999 V2000
    1.2990   -0.7500    0.0000 C   0  0
    1.2990    0.7500    0.0000 C   0  0
    0.0000    1.5000    0.0000 C   0  0
   -1.2990    0.7500    0.0000 C   0  0
   -1.2990   -0.7500    0.0000 C   0  0
    0.0000   -1.5000    0.0000 N   0  0
    2.5972    1.5031    0.0000 C   0  0
    3.6375    0.9049    0.0000 O   0  0
    2.5951    3.0039    0.0000 N   0  0
    2.3383   -1.3500    0.0000 O   0  0
   -0.0031    3.0008    0.0000 N   0  0
   -1.3039    3.7494    0.0000 C   0  0
   -1.3092    5.2494    0.0000 C   0  0
   -2.6108    5.9949    0.0000 C   0  0
   -3.9073    5.2404    0.0000 C   0  0
   -3.9021    3.7404    0.0000 C   0  0
   -2.6005    2.9949    0.0000 C   0  0
   -0.0136    6.0070    0.0000 O   0  0
   -0.0195    7.2070    0.0000 C   0  0
    3.8933    3.7570    0.0000 C   0  0
    3.8933    5.2571    0.0000 C   0  0
    5.1924    6.0071    0.0000 C   0  0
    6.4914    5.2571    0.0000 C   0  0
    6.4915    3.7571    0.0000 C   0  0
    5.1925    3.0071    0.0000 C   0  0
    7.7911    6.0075    0.0000 N   0  0
    7.7935    7.5076    0.0000 C   0  0
    9.0937    8.2556    0.0000 C   0  0
   10.3916    7.5036    0.0000 C   0  0
   10.3893    6.0036    0.0000 C   0  0
    9.0891    5.2556    0.0000 C   0  0
   11.4318    8.1019    0.0000 C   0  0
  1  2  1  0
  2  3  2  0
  3  4  1  0
  4  5  2  0
  5  6  1  0
  1  6  1  0
  7  8  2  0
  7  9  1  0
  2  7  1  0
  1 10  2  0
  3 11  1  0
 11 12  1  0
 12 13  2  0
 13 14  1  0
 14 15  2  0
 15 16  1  0
 16 17  2  0
 17 12  1  0
 13 18  1  0
 18 19  1  0
  9 20  1  0
 20 21  2  0
 21 22  1  0
 22 23  2  0
 23 24  1  0
 24 25  2  0
 25 20  1  0
 23 26  1  0
 26 27  1  0
 26 31  1  0
 27 28  1  0
 28 29  1  0
 29 30  1  0
 30 31  1  0
 29 32  1  0
M  END
> <chembl_id>
CHEMBL3781805

$$$$

  SciTegic04191617032D

 24 26  0  0  0  0            999 V2000
    1.2990   -0.7500    0.0000 C   0  0
    1.2990    0.7500    0.0000 C   0  0
    0.0000    1.5000    0.0000 N   0  0
   -1.2990    0.7500    0.0000 C   0  0
   -1.2990   -0.7500    0.0000 N   0  0
    0.0000   -1.5000    0.0000 C   0  0
   -2.5987    1.5004    0.0000 C   0  0
   -2.6012    3.0004    0.0000 C   0  0
   -3.9015    3.7484    0.0000 C   0  0
   -5.1993    2.9963    0.0000 C   0  0
   -5.1969    1.4963    0.0000 C   0  0
   -3.8967    0.7484    0.0000 C   0  0
    0.0031   -3.0008    0.0000 N   0  0
    1.3039   -3.7494    0.0000 C   0  0
    1.4469   -5.2297    0.0000 C   0  0
    2.9152   -5.5365    0.0000 C   0  0
    3.6607   -4.2349    0.0000 N   0  0
    2.6532   -3.1236    0.0000 N   0  0
    3.4071   -6.6311    0.0000 C   0  0
   -6.4939    0.7411    0.0000 N   0  0
   -6.4894   -0.7597    0.0000 C   0  0
   -7.7864   -1.5148    0.0000 C   0  0
   -5.4482   -1.3562    0.0000 O   0  0
   -7.7828   -2.7148    0.0000 C   0  0
  1  2  2  0
  2  3  1  0
  3  4  2  0
  4  5  1  0
  5  6  2  0
  6  1  1  0
  4  7  1  0
  7  8  2  0
  8  9  1  0
  9 10  2  0
 10 11  1  0
 11 12  2  0
 12  7  1  0
  6 13  1  0
 13 14  1  0
 14 15  1  0
 15 16  2  0
 16 17  1  0
 17 18  1  0
 18 14  2  0
 16 19  1  0
 11 20  1  0
 20 21  1  0
 21 22  1  0
 21 23  2  0
 22 24  2  0
M  END
> <chembl_id>
CHEMBL3604919

$$$$

  SciTegic11131815152D

 34 38  0  0  0  0            999 V2000
    0.0020  -10.3749    0.0000 O   0  0
   -0.4306   -9.2556    0.0000 C   0  0
   -1.6163   -9.0710    0.0000 O   0  0
    0.5116   -8.0874    0.0000 C   0  0
    1.9941   -8.3161    0.0000 C   0  0
    2.9334   -7.1466    0.0000 C   0  0
    2.3903   -5.7483    0.0000 C   0  0
    3.3277   -4.5763    0.0000 N   0  0
    2.7822   -3.1780    0.0000 C   0  0
    3.7175   -2.0053    0.0000 N   0  0
    3.1695   -0.6090    0.0000 C   0  0
    1.6852   -0.3846    0.0000 C   0  0
    1.3514    1.0778    0.0000 C   0  0
    0.0000    1.7286    0.0000 N   0  0
   -1.3515    1.0777    0.0000 C   0  0
   -1.6852   -0.3847    0.0000 C   0  0
   -3.1695   -0.6090    0.0000 C   0  0
   -3.7175   -2.0053    0.0000 C   0  0
   -4.9041   -2.1842    0.0000 Cl  0  0
   -2.7822   -3.1781    0.0000 C   0  0
   -1.2990   -2.9545    0.0000 C   0  0
   -0.7500   -1.5574    0.0000 C   0  0
    0.7500   -1.5574    0.0000 C   0  0
    1.2990   -2.9545    0.0000 N   0  0
   -2.5248    2.0134    0.0000 C   0  0
   -2.2261    3.4874    0.0000 C   0  0
   -1.0882    3.8686    0.0000 F   0  0
   -3.3495    4.4814    0.0000 C   0  0
   -4.7720    4.0055    0.0000 C   0  0
   -5.0711    2.5356    0.0000 C   0  0
   -3.9477    1.5416    0.0000 C   0  0
   -4.1886    0.3660    0.0000 F   0  0
    0.9077   -5.5197    0.0000 C   0  0
   -0.0316   -6.6892    0.0000 C   0  0
  1  2  1  0
  2  3  2  0
  2  4  1  0
  4  5  2  0
  5  6  1  0
  6  7  2  0
  7  8  1  0
  8  9  1  0
  9 10  2  0
 10 11  1  0
 11 12  2  0
 12 13  1  0
 13 14  1  0
 14 15  2  0
 15 16  1  0
 16 17  2  0
 17 18  1  0
 18 19  1  0
 18 20  2  0
 20 21  1  0
 21 22  2  0
 22 16  1  0
 22 23  1  0
 23 12  1  0
 23 24  2  0
 24  9  1  0
 15 25  1  0
 25 26  2  0
 26 27  1  0
 26 28  1  0
 28 29  2  0
 29 30  1  0
 30 31  2  0
 31 25  1  0
 31 32  1  0
  7 33  1  0
 33 34  2  0
 34  4  1  0
M  END
> <chembl_id>
CHEMBL259084

$$$$

  SciTegic01181116592D

 39 45  0  0  0  0            999 V2000
   11.8181   -1.4154    0.0000 C   0  0  2  0  0  0
   11.2688   -2.0266    0.0000 C   0  0
   11.5214   -2.8078    0.0000 C   0  0
   12.3276   -2.9827    0.0000 C   0  0  1  0  0  0
   12.8809   -2.3698    0.0000 C   0  0
   12.6279   -1.5822    0.0000 C   0  0
   11.5604   -0.6320    0.0000 N   0  0
   15.8719    2.7919    0.0000 C   0  0
   16.5879    3.2051    0.0000 C   0  0
   16.5851    4.0362    0.0000 C   0  0
   15.8701    4.4519    0.0000 C   0  0
   15.1574    3.2046    0.0000 C   0  0
   15.1586    4.0383    0.0000 C   0  0
   14.3709    4.2975    0.0000 N   0  0
   13.8829    3.6208    0.0000 C   0  0
   14.3689    2.9498    0.0000 O   0  0
   13.0583    3.6220    0.0000 N   0  0
   12.6449    2.9084    0.0000 C   0  0
   11.8221    2.9129    0.0000 C   0  0
   11.4087    2.2002    0.0000 C   0  0
   11.8201    1.4844    0.0000 C   0  0
   12.6490    1.4858    0.0000 C   0  0
   13.0585    2.1992    0.0000 C   0  0
   11.5665    0.7001    0.0000 C   0  0
   12.0464    0.0363    0.0000 N   0  0
   10.7778   -0.3773    0.0000 C   0  0
   10.7796    0.4465    0.0000 C   0  0
   10.0682    0.8581    0.0000 C   0  0
    9.3546    0.4471    0.0000 N   0  0
    9.3568   -0.3798    0.0000 C   0  0
   10.0687   -0.7878    0.0000 N   0  0
   12.5803   -3.7676    0.0000 N   0  0
   12.0280   -4.3774    0.0000 C   0  0
   12.2777   -5.1595    0.0000 C   0  0
   13.0832   -5.3374    0.0000 N   0  0
   13.6389   -4.7267    0.0000 C   0  0
   13.3889   -3.9382    0.0000 C   0  0
   13.3330   -6.1233    0.0000 C   0  0
   10.0692    1.6828    0.0000 N   0  0
 18 19  2  0
  2  3  1  0
 19 20  1  0
  9 10  1  0
 20 21  2  0
  3  4  1  0
 21 22  1  0
 10 11  2  0
 22 23  2  0
 23 18  1  0
 11 13  1  0
 21 24  1  0
 24 27  1  0
 12 13  2  0
 26  7  1  0
  7 25  1  0
 25 24  2  0
  4  5  1  0
  5  6  1  0
 26 27  2  0
  1  2  1  0
 27 28  1  0
  1  7  1  1
 28 29  2  0
 29 30  1  0
 13 14  1  0
 30 31  2  0
 31 26  1  0
 14 15  2  0
  4 32  1  1
 32 33  1  0
 15 16  1  0
 16 12  1  0
 12  8  1  0
 15 17  1  0
  1  6  1  0
 32 37  1  0
 33 34  1  0
 34 35  1  0
 35 36  1  0
 36 37  1  0
 17 18  1  0
 35 38  1  0
  8  9  2  0
 28 39  1  0
M  END
> <chembl_id>
CHEMBL1257769

$$$$

  SciTegic12091611192D

 30 33  0  0  0  0            999 V2000
   -3.6217    1.4865    0.0000 N   0  0
   -7.5133    0.6990    0.0000 C   0  0
   -6.2219    1.4621    0.0000 N   0  0
   -4.9153    0.7255    0.0000 C   0  0
   -4.9001   -0.7745    0.0000 C   0  0
   -6.1914   -1.5377    0.0000 C   0  0
   -7.4980   -0.8010    0.0000 N   0  0
   -8.8205    1.4361    0.0000 N   0  0
   -8.8383    2.9360    0.0000 C   0  0
  -10.1461    3.6707    0.0000 C   0  0
  -11.4362    2.9055    0.0000 C   0  0
  -11.4185    1.4056    0.0000 C   0  0
  -10.1108    0.6709    0.0000 C   0  0
  -12.7462    3.6378    0.0000 O   0  0
  -13.7774    3.0242    0.0000 C   0  0
   -1.0028   -1.5132    0.0000 C   0  0
    0.2917   -0.7475    0.0000 C   0  0
    0.2917    0.7475    0.0000 C   0  0
   -1.0028    1.5132    0.0000 C   0  0
   -2.3155    0.7475    0.0000 C   0  0
   -2.3155   -0.7475    0.0000 N   0  0
    2.5889    0.0182    0.0000 C   0  0
    1.7138   -1.2033    0.0000 N   0  0
    1.7138    1.2033    0.0000 N   0  0
    2.1812    2.6271    0.0000 C   0  0
    3.6500    2.9355    0.0000 C   0  0
    4.0244    4.0756    0.0000 F   0  0
    4.4505    2.0415    0.0000 F   0  0
    4.8245    3.1816    0.0000 F   0  0
    1.3808    3.5211    0.0000 C   0  0
  2  3  1  0
  3  4  2  0
  4  5  1  0
  5  6  2  0
  6  7  1  0
  2  7  2  0
  8  9  1  0
  9 10  1  0
 10 11  1  0
 11 12  1  0
 12 13  1  0
  8 13  1  0
 14 15  1  0
 11 14  1  0
  2  8  1  0
  1  4  1  0
 16 17  1  0
 17 18  2  0
 18 19  1  0
 19 20  2  0
 20 21  1  0
 16 21  2  0
 22 23  2  0
 22 24  1  0
 17 23  1  0
 18 24  1  0
  1 20  1  0
 24 25  1  0
 25 26  1  0
 26 27  1  0
 26 28  1  0
 26 29  1  0
 25 30  1  0
M  END
> <chembl_id>
CHEMBL3736365

$$$$

  SciTegic04091414152D

 42 47  0  0  0  0            999 V2000
   27.6318  -18.9624    0.0000 N   0  0
   27.6306  -19.7897    0.0000 C   0  0
   28.3454  -20.2026    0.0000 N   0  0
   28.3436  -18.5496    0.0000 C   0  0
   29.0590  -18.9587    0.0000 C   0  0
   29.0598  -19.7856    0.0000 C   0  0
   29.7750  -20.1965    0.0000 N   0  0
   30.4901  -19.7817    0.0000 C   0  0
   30.4853  -18.9518    0.0000 N   0  0
   29.7694  -18.5445    0.0000 C   0  0
   26.9158  -20.2017    0.0000 N   0  0
   31.2061  -20.1915    0.0000 O   0  0
   31.1972  -18.5349    0.0000 C   0  0
   26.9151  -21.0266    0.0000 C   0  0
   26.2002  -21.4370    0.0000 C   0  0
   26.1992  -22.2613    0.0000 C   0  0
   26.9139  -22.6751    0.0000 C   0  0
   27.6311  -22.2587    0.0000 C   0  0
   27.6285  -21.4359    0.0000 C   0  0
   26.9144  -23.5001    0.0000 N   0  0
   26.1997  -23.9137    0.0000 C   0  0
   26.1982  -24.7351    0.0000 C   0  0
   26.9111  -25.1510    0.0000 N   0  0
   27.6271  -24.7394    0.0000 C   0  0
   27.6304  -23.9118    0.0000 C   0  0
   26.9083  -25.9760    0.0000 C   0  0
   25.4865  -21.0232    0.0000 O   0  0
   24.7713  -21.4344    0.0000 C   0  0
   29.7768  -21.0214    0.0000 C   0  0  1  0  0  0
   29.1126  -21.5072    0.0000 C   0  0
   29.3691  -22.2914    0.0000 C   0  0
   30.1942  -22.2896    0.0000 N   0  0
   30.4474  -21.5044    0.0000 C   0  0
   30.6015  -23.0072    0.0000 C   0  0
   30.1840  -23.7188    0.0000 C   0  0
   31.4265  -23.0129    0.0000 O   0  0
   30.5916  -24.4361    0.0000 C   0  0
   31.9116  -18.9458    0.0000 C   0  0
   32.6214  -18.5325    0.0000 C   0  0
   32.6207  -17.7072    0.0000 C   0  0
   31.9038  -17.2968    0.0000 C   0  0
   31.1877  -17.7118    0.0000 C   0  0
  1  2  2  0
  2  3  1  0
  3  6  2  0
  5  4  2  0
  4  1  1  0
  5  6  1  0
  6  7  1  0
  7  8  1  0
  8  9  1  0
  9 10  1  0
 10  5  1  0
  2 11  1  0
  8 12  2  0
  9 13  1  0
 11 14  1  0
 14 15  2  0
 15 16  1  0
 16 17  2  0
 17 18  1  0
 18 19  2  0
 19 14  1  0
 17 20  1  0
 20 21  1  0
 20 25  1  0
 21 22  1  0
 22 23  1  0
 23 24  1  0
 24 25  1  0
 23 26  1  0
 15 27  1  0
 27 28  1  0
 29  7  1  6
 29 30  1  0
 30 31  1  0
 31 32  1  0
 32 33  1  0
 33 29  1  0
 32 34  1  0
 34 35  1  0
 34 36  2  0
 35 37  2  0
 13 38  1  0
 13 42  1  0
 38 39  1  0
 39 40  1  0
 40 41  1  0
 41 42  1  0
M  END
> <chembl_id>
CHEMBL3087200

$$$$

  SciTegic09291413392D

 46 51  0  0  0  0            999 V2000
   12.0281   -6.9140    0.0000 C   0  0
   12.4406   -6.1995    0.0000 C   0  0
   13.2656   -6.1995    0.0000 C   0  0
   13.6781   -6.9140    0.0000 C   0  0
   13.2656   -7.6284    0.0000 C   0  0
   12.4406   -7.6284    0.0000 C   0  0
   11.2031   -6.9140    0.0000 S   0  0
   10.3781   -6.9140    0.0000 O   0  0
   11.2031   -7.7390    0.0000 O   0  0
   11.2031   -6.0890    0.0000 N   0  0
   14.6701   -4.5918    0.0000 O   0  0
   14.4986   -5.3988    0.0000 C   0  0
   13.6781   -5.4850    0.0000 C   0  0
   13.3425   -4.7314    0.0000 C   0  0
   13.9556   -4.1793    0.0000 C   0  0
   10.4886   -5.6765    0.0000 C   0  0
   10.4886   -4.8515    0.0000 C   0  0
    9.7741   -4.4390    0.0000 C   0  0
    9.0597   -4.8515    0.0000 C   0  0
    9.0597   -5.6765    0.0000 C   0  0
    9.7741   -6.0890    0.0000 C   0  0
    8.3452   -4.4390    0.0000 O   0  0
    6.2018   -5.6765    0.0000 N   0  0
    6.9162   -6.0890    0.0000 C   0  0
    7.6307   -5.6765    0.0000 C   0  0
    7.6307   -4.8515    0.0000 C   0  0
    6.9162   -4.4390    0.0000 C   0  0
    6.9162   -3.6140    0.0000 C   0  0
    6.2018   -3.2015    0.0000 C   0  0
    5.4873   -3.6140    0.0000 C   0  0
    5.4873   -4.4390    0.0000 C   0  0
    6.2018   -4.8515    0.0000 C   0  0
    4.7728   -3.2015    0.0000 O   0  0
    4.0584   -3.6140    0.0000 C   0  0
    3.3439   -3.2015    0.0000 C   0  0
    2.6294   -3.6140    0.0000 C   0  0
    1.9150   -3.2015    0.0000 N   0  0
    1.9150   -2.3765    0.0000 C   0  0
    1.2005   -1.9640    0.0000 C   0  0
    0.4860   -2.3765    0.0000 N   0  0
    0.4860   -3.2015    0.0000 C   0  0
    1.2005   -3.6140    0.0000 C   0  0
   -0.2285   -1.9640    0.0000 C   0  0
    6.2018   -2.3765    0.0000 O   0  0
    5.4873   -1.9640    0.0000 C   0  0
    9.7741   -3.6140    0.0000 F   0  0
  1  2  1  0
  2  3  2  0
  3  4  1  0
  4  5  2  0
  5  6  1  0
  1  6  2  0
  7  8  2  0
  7  9  2  0
  7 10  1  0
  1  7  1  0
 11 12  1  0
 12 13  2  0
 13 14  1  0
 14 15  2  0
 11 15  1  0
  3 13  1  0
 16 17  1  0
 17 18  2  0
 18 19  1  0
 19 20  2  0
 20 21  1  0
 16 21  2  0
 23 24  2  0
 24 25  1  0
 25 26  2  0
 26 27  1  0
 27 28  2  0
 28 29  1  0
 29 30  2  0
 30 31  1  0
 31 32  2  0
 23 32  1  0
 27 32  1  0
 34 35  1  0
 35 36  1  0
 33 34  1  0
 37 38  1  0
 38 39  1  0
 39 40  1  0
 40 41  1  0
 41 42  1  0
 37 42  1  0
 40 43  1  0
 36 37  1  0
 30 33  1  0
 44 45  1  0
 29 44  1  0
 22 26  1  0
 19 22  1  0
 18 46  1  0
 10 16  1  0
M  END
> <chembl_id>
CHEMBL3263963

$$$$

  SciTegic05221516342D

 29 33  0  0  0  0            999 V2000
    6.3921   -5.2132    0.0000 N   0  0
    4.3491   -4.5082    0.0000 C   0  0
    5.1663   -4.5082    0.0000 N   0  0
    5.5749   -5.2132    0.0000 C   0  0
    5.1663   -5.9223    0.0000 C   0  0
    4.3491   -5.9223    0.0000 C   0  0
    3.9405   -5.2132    0.0000 N   0  0
    3.9405   -3.7991    0.0000 N   0  0
    3.1233   -3.7991    0.0000 C   0  0
    2.7147   -3.0900    0.0000 C   0  0
    3.1233   -2.3851    0.0000 C   0  0
    3.9405   -2.3851    0.0000 C   0  0
    4.3491   -3.0900    0.0000 C   0  0
    2.7147   -1.6760    0.0000 O   0  0
    1.8975   -1.6760    0.0000 C   0  0
    6.8007   -3.0900    0.0000 C   0  0
    7.6179   -3.0900    0.0000 C   0  0
    8.0265   -3.7991    0.0000 C   0  0
    7.6179   -4.5082    0.0000 C   0  0
    6.8007   -4.5082    0.0000 C   0  0
    6.3921   -3.7991    0.0000 N   0  0
    8.8249   -3.6284    0.0000 N   0  0
    8.1657   -2.4836    0.0000 C   0  0
    8.9130   -2.8179    0.0000 C   0  0
    9.4313   -4.1762    0.0000 C   0  0
   10.2338   -4.0054    0.0000 C   0  0
   10.6424   -4.7145    0.0000 C   0  0
   10.0946   -5.3210    0.0000 C   0  0
    9.3473   -4.9866    0.0000 C   0  0
  2  3  1  0
  3  4  2  0
  4  5  1  0
  5  6  2  0
  6  7  1  0
  2  7  2  0
  8  9  1  0
  9 10  1  0
 10 11  1  0
 11 12  1  0
 12 13  1  0
  8 13  1  0
 14 15  1  0
 11 14  1  0
  2  8  1  0
  1  4  1  0
 16 17  1  0
 17 18  2  0
 18 19  1  0
 19 20  2  0
 20 21  1  0
 16 21  2  0
 23 24  2  0
 22 24  1  0
 17 23  1  0
 18 22  1  0
 25 26  1  0
 26 27  1  0
 27 28  1  0
 28 29  1  0
 25 29  1  0
 22 25  1  0
  1 20  1  0
M  END
> <chembl_id>
CHEMBL3354189

$$$$

  SciTegic11201309402D

 37 41  0  0  0  0            999 V2000
    3.0553  -14.8177    0.0000 C   0  0
   -4.0034  -12.2030    0.0000 N   0  0
   -4.8308  -12.4130    0.0000 C   0  0
   -5.1522  -13.1505    0.0000 C   0  0
   -4.0348  -14.0697    0.0000 C   0  0
   -4.8058  -13.8840    0.0000 C   0  0
   -3.8301  -11.3956    0.0000 C   0  0
   -5.3654  -11.7836    0.0000 O   0  0
   -3.3546  -12.7163    0.0000 C   0  0
   -3.3612  -13.5393    0.0000 C   0  0
   -2.6528  -13.9547    0.0000 C   0  0
   -1.9374  -13.5482    0.0000 C   0  0
   -1.9348  -12.7220    0.0000 C   0  0
   -2.6438  -12.3104    0.0000 C   0  0
   -1.2243  -13.9646    0.0000 N   0  0
   -0.5071  -13.5554    0.0000 C   0  0
    0.2040  -13.9759    0.0000 N   0  0
    0.9208  -13.5673    0.0000 C   0  0
    0.9253  -12.7406    0.0000 C   0  0
    0.2072  -12.3243    0.0000 C   0  0
   -0.5066  -12.7353    0.0000 N   0  0
    1.6420  -12.3303    0.0000 Cl  0  0
    1.6337  -13.9841    0.0000 N   0  0
    3.7677  -15.2353    0.0000 N   0  0
    2.3374  -15.2257    0.0000 O   0  0
   -4.4426  -10.8418    0.0000 C   0  0
    2.3559  -12.7508    0.0000 C   0  0  1  0  0  0
    2.3501  -13.5761    0.0000 C   0  0  2  0  0  0
    3.0608  -13.9919    0.0000 C   0  0  2  0  0  0
    3.7777  -13.5836    0.0000 C   0  0  2  0  0  0
    3.7795  -12.7552    0.0000 C   0  0
    3.0682  -12.3431    0.0000 C   0  0
   -2.6584  -14.7805    0.0000 O   0  0
   -3.3763  -15.1885    0.0000 C   0  0
    2.9361  -13.3335    0.0000 C   0  0
    2.9137  -13.0801    0.0000 H   0  0
    3.2192  -13.2555    0.0000 H   0  0
 17 18  1  0
  2  9  1  0
 18 19  2  0
  9 10  2  0
 19 20  1  0
 10  5  1  0
 20 21  2  0
 21 16  1  0
 10 11  1  0
 19 22  1  0
  5  6  1  0
 18 23  1  0
 28 23  1  6
 29  1  1  6
 11 12  2  0
  1 24  1  0
  6  4  1  0
  1 25  2  0
 12 13  1  0
  7 26  1  0
 13 14  2  0
 27 28  1  0
 14  9  1  0
 28 29  1  0
  2  7  1  0
 29 30  1  0
 12 15  1  0
 30 31  1  0
  2  3  1  0
 31 32  2  0
 32 27  1  0
 15 16  1  0
  3  8  2  0
 11 33  1  0
 16 17  2  0
 33 34  1  0
  3  4  1  0
 27 35  1  0
 30 35  1  0
 30 36  1  6
 27 37  1  6
M  END
> <chembl_id>
CHEMBL2042829

$$$$

  SciTegic09261414462D

 29 31  0  0  0  0            999 V2000
    7.6268   -5.6694    0.0000 N   0  0
    8.3365   -5.2599    0.0000 C   0  0
    8.3337   -4.4373    0.0000 N   0  0
    7.6251   -4.0320    0.0000 C   0  0
    6.9188   -5.2604    0.0000 C   0  0
    6.9200   -4.4439    0.0000 C   0  0
    6.1438   -4.1904    0.0000 C   0  0
    5.6628   -4.8503    0.0000 C   0  0
    6.1419   -5.5115    0.0000 S   0  0
    7.6213   -3.2148    0.0000 N   0  0
    8.3271   -2.8030    0.0000 C   0  0
    9.0345   -3.2131    0.0000 C   0  0
    9.7399   -2.8019    0.0000 C   0  0
    9.7365   -1.9839    0.0000 C   0  0
    9.0220   -1.5787    0.0000 C   0  0
    8.3196   -1.9922    0.0000 C   0  0
    4.8456   -4.8491    0.0000 N   0  0
    4.4381   -4.1408    0.0000 C   0  0
    3.6209   -4.1396    0.0000 C   0  0
    4.8477   -3.4337    0.0000 O   0  0
   10.4418   -1.5711    0.0000 F   0  0
   10.4492   -3.2076    0.0000 Cl  0  0
    3.2133   -3.4313    0.0000 C   0  0
    2.3961   -3.4301    0.0000 C   0  0
    1.9886   -2.7218    0.0000 N   0  0
    2.3982   -2.0147    0.0000 C   0  0
    1.1714   -2.7206    0.0000 C   0  0
    0.7638   -2.0123    0.0000 C   0  0
    1.9906   -1.3064    0.0000 C   0  0
  5  1  1  0
  1  2  2  0
  2  3  1  0
  3  4  2  0
  4  6  1  0
  5  6  2  0
  6  7  1  0
  7  8  2  0
  8  9  1  0
  9  5  1  0
  4 10  1  0
 10 11  1  0
 11 12  2  0
 12 13  1  0
 13 14  2  0
 14 15  1  0
 15 16  2  0
 16 11  1  0
  8 17  1  0
 17 18  1  0
 18 19  1  0
 18 20  2  0
 14 21  1  0
 13 22  1  0
 19 23  2  0
 23 24  1  0
 24 25  1  0
 25 26  1  0
 25 27  1  0
 27 28  1  0
 26 29  1  0
M  END
> <chembl_id>
CHEMBL3233778

$$$$

  SciTegic09261414462D

 31 34  0  0  0  0            999 V2000
   31.3336  -16.2805    0.0000 N   0  0
   32.0433  -15.8710    0.0000 C   0  0
   32.0405  -15.0484    0.0000 N   0  0
   31.3319  -14.6431    0.0000 C   0  0
   30.6256  -15.8715    0.0000 C   0  0
   30.6268  -15.0550    0.0000 C   0  0
   29.8506  -14.8015    0.0000 C   0  0
   29.3696  -15.4614    0.0000 C   0  0
   29.8487  -16.1226    0.0000 S   0  0
   31.3281  -13.8259    0.0000 N   0  0
   32.0339  -13.4141    0.0000 C   0  0
   32.7413  -13.8242    0.0000 C   0  0
   33.4467  -13.4130    0.0000 C   0  0
   33.4433  -12.5950    0.0000 C   0  0
   32.7288  -12.1898    0.0000 C   0  0
   32.0264  -12.6033    0.0000 C   0  0
   28.5524  -15.4602    0.0000 N   0  0
   28.1449  -14.7519    0.0000 C   0  0
   27.3277  -14.7507    0.0000 C   0  0
   28.5545  -14.0448    0.0000 O   0  0
   34.1486  -12.1822    0.0000 F   0  0
   34.1560  -13.8187    0.0000 Cl  0  0
   26.9181  -15.4578    0.0000 N   0  0
   26.1014  -15.4544    0.0000 C   0  0
   25.6919  -16.1574    0.0000 C   0  0
   26.0959  -16.8681    0.0000 C   0  0
   26.9141  -16.8713    0.0000 C   0  0
   27.3281  -16.1637    0.0000 C   0  0
   25.6837  -17.5737    0.0000 C   0  0
   24.8665  -17.5694    0.0000 C   0  0
   24.4616  -16.8595    0.0000 O   0  0
  5  1  1  0
  1  2  2  0
  2  3  1  0
  3  4  2  0
  4  6  1  0
  5  6  2  0
  6  7  1  0
  7  8  2  0
  8  9  1  0
  9  5  1  0
  4 10  1  0
 10 11  1  0
 11 12  2  0
 12 13  1  0
 13 14  2  0
 14 15  1  0
 15 16  2  0
 16 11  1  0
  8 17  1  0
 17 18  1  0
 18 19  1  0
 18 20  2  0
 14 21  1  0
 13 22  1  0
 19 23  1  0
 23 24  1  0
 23 28  1  0
 24 25  1  0
 25 26  1  0
 26 27  1  0
 27 28  1  0
 26 29  1  0
 29 30  1  0
 30 31  1  0
M  END
> <chembl_id>
CHEMBL3233764

$$$$

  SciTegic01181116592D

 41 47  0  0  0  0            999 V2000
   29.8274  -13.9184    0.0000 C   0  0  2  0  0  0
   29.2759  -14.5307    0.0000 C   0  0
   29.5277  -15.3125    0.0000 C   0  0
   30.3341  -15.4884    0.0000 C   0  0  2  0  0  0
   30.8883  -14.8760    0.0000 C   0  0
   30.6362  -14.0877    0.0000 C   0  0
   30.5859  -16.2741    0.0000 N   0  0
   30.0330  -16.8829    0.0000 C   0  0
   30.2819  -17.6657    0.0000 C   0  0
   31.0876  -17.8446    0.0000 N   0  0
   31.6442  -17.2343    0.0000 C   0  0
   31.3950  -16.4451    0.0000 C   0  0
   31.3365  -18.6312    0.0000 C   0  0
   29.5713  -13.1341    0.0000 N   0  0
   27.3611  -12.0583    0.0000 N   0  0
   27.3599  -12.8815    0.0000 C   0  0
   28.0789  -13.2944    0.0000 N   0  0
   28.0771  -11.6455    0.0000 C   0  0
   28.7883  -12.0547    0.0000 C   0  0
   28.7890  -12.8815    0.0000 C   0  0
   30.0571  -12.4710    0.0000 N   0  0
   29.5734  -11.8009    0.0000 C   0  0
   29.9841  -11.0860    0.0000 C   0  0
   30.8099  -11.0879    0.0000 C   0  0
   31.2208  -10.3734    0.0000 C   0  0
   30.8066   -9.6588    0.0000 C   0  0
   29.9774   -9.6633    0.0000 C   0  0
   29.5703  -10.3785    0.0000 C   0  0
   31.2166   -8.9429    0.0000 N   0  0
   32.0416   -8.9400    0.0000 C   0  0
   32.5284   -9.6004    0.0000 O   0  0
   32.5237   -8.2656    0.0000 N   0  0
   33.3092   -8.5176    0.0000 C   0  0
   33.3099   -9.3399    0.0000 C   0  0
   34.0212   -9.7485    0.0000 C   0  0
   34.7323   -9.3361    0.0000 C   0  0
   34.7275   -8.5108    0.0000 C   0  0
   34.0157   -8.1058    0.0000 C   0  0
   34.0229  -10.5735    0.0000 Cl  0  0
   28.0767  -10.8205    0.0000 N   0  0
   31.2223  -11.8025    0.0000 C   0  0
 21 22  2  0
 22 19  1  0
  8  9  1  0
 22 23  1  0
  9 10  1  0
 23 24  2  0
 10 11  1  0
 24 25  1  0
 11 12  1  0
 25 26  2  0
  5  6  1  0
 26 27  1  0
 10 13  1  0
 27 28  2  0
 28 23  1  0
  1  2  1  0
 26 29  1  0
  1 14  1  1
 29 30  1  0
 30 31  1  0
  4  7  1  6
  7  8  1  0
 31 34  1  0
 33 32  1  0
 32 30  2  0
 15 16  2  0
 33 34  2  0
 16 17  1  0
 34 35  1  0
 17 20  2  0
 35 36  2  0
  1  6  1  0
 36 37  1  0
 19 18  2  0
 37 38  2  0
 38 33  1  0
 18 15  1  0
 35 39  1  0
 19 20  1  0
 18 40  1  0
  2  3  1  0
  3  4  1  0
  4  5  1  0
  7 12  1  0
 20 14  1  0
 14 21  1  0
 24 41  1  0
M  END
> <chembl_id>
CHEMBL1256436

$$$$

  SciTegic05061409512D

 32 35  0  0  0  0            999 V2000
   36.0183  -11.5356    0.0000 O   0  0
   36.4310  -12.2455    0.0000 S   0  0
   36.8395  -11.5331    0.0000 O   0  0
   33.6077  -16.3382    0.0000 N   0  0
   34.3174  -15.9288    0.0000 C   0  0
   34.3146  -15.1061    0.0000 N   0  0
   33.6060  -14.7009    0.0000 C   0  0
   32.8997  -15.9293    0.0000 C   0  0
   32.9020  -15.1074    0.0000 C   0  0
   32.1925  -14.6963    0.0000 C   0  0
   31.4802  -15.1059    0.0000 C   0  0
   31.4819  -15.9309    0.0000 C   0  0
   32.1920  -16.3383    0.0000 C   0  0
   33.6043  -13.8837    0.0000 N   0  0
   30.7724  -14.6974    0.0000 N   0  0
   30.0648  -15.1061    0.0000 C   0  0
   29.3570  -14.6977    0.0000 C   0  0
   30.0649  -15.9233    0.0000 O   0  0
   28.6494  -15.1064    0.0000 C   0  0
   34.3111  -13.4736    0.0000 C   0  0
   35.0200  -13.8858    0.0000 C   0  0
   35.7264  -13.4764    0.0000 C   0  0
   35.7251  -12.6583    0.0000 C   0  0
   35.0116  -12.2514    0.0000 C   0  0
   34.3082  -12.6631    0.0000 C   0  0
   37.1405  -12.6535    0.0000 N   0  0
   37.1419  -13.4707    0.0000 C   0  0
   36.4352  -13.8760    0.0000 N   0  0
   36.4362  -14.6924    0.0000 C   0  0
   37.1452  -15.1006    0.0000 C   0  0
   37.8545  -14.6864    0.0000 C   0  0
   37.8500  -13.8714    0.0000 C   0  0
  2  1  2  0
  3  2  2  0
  8  4  1  0
  4  5  2  0
  5  6  1  0
  6  7  2  0
  7  9  1  0
  8  9  1  0
  9 10  2  0
 10 11  1  0
 11 12  2  0
 12 13  1  0
 13  8  2  0
  7 14  1  0
 11 15  1  0
 15 16  1  0
 16 17  1  0
 16 18  2  0
 17 19  2  0
 14 20  1  0
 20 21  2  0
 21 22  1  0
 22 23  2  0
 23 24  1  0
 24 25  2  0
 25 20  1  0
 23  2  1  0
  2 26  1  0
 26 27  1  0
 27 28  2  0
 28 29  1  0
 29 30  2  0
 30 31  1  0
 31 32  2  0
 32 27  1  0
M  END
> <chembl_id>
CHEMBL3133893

$$$$

  Mrv0541 05211314572D          

 36 37  0  0  0  0            999 V2000
   -2.0383   -7.2527    0.0000 C   0  0  0  0  0  0  0  0  0  0  0  0
   -2.7528   -7.6652    0.0000 C   0  0  0  0  0  0  0  0  0  0  0  0
   -2.7528   -8.4902    0.0000 C   0  0  0  0  0  0  0  0  0  0  0  0
   -2.0383   -8.9027    0.0000 C   0  0  0  0  0  0  0  0  0  0  0  0
   -1.3239   -8.4902    0.0000 C   0  0  0  0  0  0  0  0  0  0  0  0
   -1.3239   -7.6652    0.0000 C   0  0  0  0  0  0  0  0  0  0  0  0
   -2.0383   -6.4277    0.0000 O   0  0  0  0  0  0  0  0  0  0  0  0
   -2.7528   -6.0152    0.0000 C   0  0  0  0  0  0  0  0  0  0  0  0
   -3.4673   -7.2527    0.0000 O   0  0  0  0  0  0  0  0  0  0  0  0
   -0.6094   -8.9027    0.0000 C   0  0  0  0  0  0  0  0  0  0  0  0
   -0.6094   -9.7277    0.0000 C   0  0  0  0  0  0  0  0  0  0  0  0
    0.1051  -10.1402    0.0000 C   0  0  0  0  0  0  0  0  0  0  0  0
    0.1051  -10.9652    0.0000 C   0  0  0  0  0  0  0  0  0  0  0  0
    0.8195   -9.7277    0.0000 O   0  0  0  0  0  0  0  0  0  0  0  0
    0.8195  -11.3777    0.0000 C   0  0  0  0  0  0  0  0  0  0  0  0
    0.8195  -12.2027    0.0000 C   0  0  0  0  0  0  0  0  0  0  0  0
    1.5340  -10.9652    0.0000 O   0  0  0  0  0  0  0  0  0  0  0  0
    1.5340  -12.6152    0.0000 C   0  0  0  0  0  0  0  0  0  0  0  0
    1.5340  -13.4402    0.0000 C   0  0  0  0  0  0  0  0  0  0  0  0
    2.2485  -13.8527    0.0000 C   0  0  0  0  0  0  0  0  0  0  0  0
    2.2485  -14.6777    0.0000 C   0  0  0  0  0  0  0  0  0  0  0  0
    1.5340  -15.0902    0.0000 C   0  0  0  0  0  0  0  0  0  0  0  0
    0.8195  -14.6777    0.0000 C   0  0  0  0  0  0  0  0  0  0  0  0
    0.8195  -13.8527    0.0000 C   0  0  0  0  0  0  0  0  0  0  0  0
    0.1051  -15.0902    0.0000 O   0  0  0  0  0  0  0  0  0  0  0  0
   -0.6094  -14.6777    0.0000 C   0  0  0  0  0  0  0  0  0  0  0  0
    1.5340  -15.9152    0.0000 O   0  0  0  0  0  0  0  0  0  0  0  0
   -3.4673   -6.4277    0.0000 C   0  0  0  0  0  0  0  0  0  0  0  0
    2.2485  -16.3277    0.0000 C   0  0  0  0  0  0  0  0  0  0  0  0
   -0.6094  -11.3777    0.0000 C   0  0  0  0  0  0  0  0  0  0  0  0
   -0.6094  -12.2027    0.0000 C   0  0  0  0  0  0  0  0  0  0  0  0
   -1.3239  -12.6152    0.0000 C   0  0  0  0  0  0  0  0  0  0  0  0
   -1.3239  -13.4402    0.0000 O   0  0  0  0  0  0  0  0  0  0  0  0
   -2.0383  -12.2027    0.0000 O   0  0  0  0  0  0  0  0  0  0  0  0
   -0.6094  -13.8527    0.0000 C   0  0  0  0  0  0  0  0  0  0  0  0
    0.1051  -13.4402    0.0000 C   0  0  0  0  0  0  0  0  0  0  0  0
 16 18  2  0  0  0  0
  2  9  1  0  0  0  0
 18 19  1  0  0  0  0
  4  5  1  0  0  0  0
 19 20  2  0  0  0  0
  5 10  1  0  0  0  0
 20 21  1  0  0  0  0
  2  3  1  0  0  0  0
 21 22  2  0  0  0  0
 10 11  2  0  0  0  0
 22 23  1  0  0  0  0
  5  6  2  0  0  0  0
 23 24  2  0  0  0  0
 24 19  1  0  0  0  0
 11 12  1  0  0  0  0
 23 25  1  0  0  0  0
  6  1  1  0  0  0  0
 25 26  1  0  0  0  0
 12 13  2  0  0  0  0
 22 27  1  0  0  0  0
  1  2  2  0  0  0  0
  9 28  1  0  0  0  0
 12 14  1  0  0  0  0
 27 29  1  0  0  0  0
  1  7  1  0  0  0  0
 13 30  1  0  0  0  0
 13 15  1  0  0  0  0
 30 31  2  0  0  0  0
  3  4  2  0  0  0  0
 31 32  1  0  0  0  0
 15 16  1  0  0  0  0
 32 33  1  0  0  0  0
  7  8  1  0  0  0  0
 32 34  2  0  0  0  0
 15 17  2  0  0  0  0
 33 35  1  0  0  0  0
 35 36  1  0  0  0  0
M  END
> <chembl_id>
CHEMBL1172583

$$$$

  SciTegic12161615052D

 33 36  0  0  0  0            999 V2000
    1.2990   -0.7500    0.0000 C   0  0
    1.2990    0.7500    0.0000 C   0  0
    0.0000    1.5000    0.0000 C   0  0
   -1.2990    0.7500    0.0000 C   0  0
   -1.2990   -0.7500    0.0000 C   0  0
    0.0000   -1.5000    0.0000 N   0  0
    2.5972    1.5031    0.0000 C   0  0
    3.6375    0.9049    0.0000 O   0  0
    2.5951    3.0039    0.0000 N   0  0
    2.3383   -1.3500    0.0000 O   0  0
    3.8933    3.7570    0.0000 C   0  0
    3.8933    5.2571    0.0000 C   0  0
    5.1924    6.0071    0.0000 C   0  0
    6.4914    5.2571    0.0000 C   0  0
    6.4915    3.7571    0.0000 C   0  0
    5.1925    3.0071    0.0000 C   0  0
    7.7911    6.0075    0.0000 N   0  0
    7.7935    7.5076    0.0000 C   0  0
    9.0937    8.2556    0.0000 C   0  0
   10.3916    7.5036    0.0000 N   0  0
   10.3893    6.0036    0.0000 C   0  0
    9.0891    5.2556    0.0000 C   0  0
   11.4318    8.1019    0.0000 C   0  0
   -0.0031    3.0008    0.0000 N   0  0
   -1.3039    3.7494    0.0000 C   0  0
   -1.3070    5.2502    0.0000 C   0  0
   -2.6078    5.9988    0.0000 C   0  0
   -2.6131    7.4988    0.0000 C   0  0
   -3.9148    8.2443    0.0000 C   0  0
   -5.2112    7.4898    0.0000 C   0  0
   -5.2060    5.9898    0.0000 C   0  0
   -3.9044    5.2443    0.0000 C   0  0
   -6.2431    5.3862    0.0000 Cl  0  0
  1  2  1  0
  2  3  2  0
  3  4  1  0
  4  5  2  0
  5  6  1  0
  1  6  1  0
  7  8  2  0
  7  9  1  0
  2  7  1  0
  1 10  2  0
  9 11  1  0
 11 12  2  0
 12 13  1  0
 13 14  2  0
 14 15  1  0
 15 16  2  0
 16 11  1  0
 17 18  1  0
 17 22  1  0
 18 19  1  0
 19 20  1  0
 20 21  1  0
 21 22  1  0
 14 17  1  0
 20 23  1  0
  3 24  1  0
 24 25  1  0
 25 26  1  0
 26 27  1  0
 27 28  2  0
 28 29  1  0
 29 30  2  0
 30 31  1  0
 31 32  2  0
 32 27  1  0
 31 33  1  0
M  END
> <chembl_id>
CHEMBL3780037

$$$$

  SciTegic02271217242D

 26 29  0  0  0  0            999 V2000
   -3.3211  -25.1860    0.0000 N   0  0
   -2.6047  -24.7727    0.0000 C   0  0
   -2.6075  -23.9422    0.0000 N   0  0
   -3.3229  -23.5330    0.0000 C   0  0
   -4.0359  -24.7732    0.0000 C   0  0
   -4.0347  -23.9443    0.0000 C   0  0
   -4.8227  -23.6869    0.0000 N   0  0
   -5.3109  -24.3568    0.0000 C   0  0
   -4.8247  -25.0281    0.0000 C   0  0
   -3.3247  -22.7080    0.0000 N   0  0
   -2.6112  -22.2940    0.0000 C   0  0
   -1.8989  -22.7079    0.0000 C   0  0
   -1.1858  -22.2945    0.0000 C   0  0
   -1.1872  -21.4686    0.0000 C   0  0
   -1.9076  -21.0578    0.0000 C   0  0
   -2.6177  -21.4736    0.0000 C   0  0
   -0.4706  -22.7057    0.0000 Cl  0  0
   -0.4742  -21.0536    0.0000 O   0  0
    0.2417  -21.4636    0.0000 C   0  0
    0.9548  -21.0485    0.0000 C   0  0
    1.6676  -21.4606    0.0000 C   0  0
    2.3801  -21.0463    0.0000 C   0  0
    2.3777  -20.2204    0.0000 C   0  0
    1.6567  -19.8106    0.0000 C   0  0
    0.9471  -20.2273    0.0000 C   0  0
    3.0958  -21.4566    0.0000 F   0  0
  5  1  1  0
 12 13  1  0
  2  3  1  0
 13 14  2  0
 14 15  1  0
  3  4  2  0
 15 16  2  0
 16 11  1  0
  6  7  1  0
 13 17  1  0
  7  8  1  0
 14 18  1  0
  8  9  2  0
 18 19  1  0
  9  5  1  0
 19 20  1  0
  4  6  1  0
 20 21  2  0
  4 10  1  0
 21 22  1  0
  5  6  2  0
 22 23  2  0
 10 11  1  0
 23 24  1  0
  1  2  2  0
 24 25  2  0
 25 20  1  0
 11 12  2  0
 22 26  1  0
M  END
> <chembl_id>
CHEMBL1923000

$$$$

  SciTegic12201616152D

 23 25  0  0  0  0            999 V2000
    3.8942   -1.4964    0.0000 N   0  0
    5.1929   -0.7441    0.0000 C   0  0
    6.2333   -1.3420    0.0000 O   0  0
    5.1908    0.4559    0.0000 N   0  0
   -1.2964    1.4973    0.0000 N   0  0
   -2.6111    0.7486    0.0000 C   0  0
   -2.6111   -0.7486    0.0000 N   0  0
   -1.2964   -1.4973    0.0000 C   0  0
    0.0000   -0.7486    0.0000 C   0  0
    1.2964   -1.4973    0.0000 C   0  0
    2.5929   -0.7486    0.0000 C   0  0
    2.5929    0.7486    0.0000 C   0  0
    1.2964    1.4973    0.0000 C   0  0
    0.0000    0.7486    0.0000 C   0  0
   -1.2907   -2.9981    0.0000 N   0  0
   -2.5870   -3.7544    0.0000 C   0  0
   -2.5835   -5.2544    0.0000 C   0  0
   -3.8807   -6.0076    0.0000 C   0  0
   -5.1815   -5.2608    0.0000 C   0  0
   -5.1852   -3.7608    0.0000 C   0  0
   -3.8880   -3.0076    0.0000 C   0  0
   -6.2193   -5.8633    0.0000 F   0  0
   -3.8777   -7.2076    0.0000 Cl  0  0
  1  2  1  0
  2  3  2  0
  2  4  1  0
  5  6  1  0
  6  7  2  0
  7  8  1  0
  8  9  2  0
  9 10  1  0
 10 11  2  0
 11 12  1  0
 12 13  2  0
 13 14  1  0
  5 14  2  0
  9 14  1  0
 16 17  1  0
 17 18  2  0
 18 19  1  0
 19 20  2  0
 20 21  1  0
 16 21  2  0
 19 22  1  0
 18 23  1  0
 15 16  1  0
  8 15  1  0
  1 11  1  0
M  END
> <chembl_id>
CHEMBL3814211

$$$$

  SciTegic04091414352D

 32 35  0  0  0  0            999 V2000
   12.4135   -6.9170    0.0000 N   0  0
   13.1223   -7.3248    0.0000 C   0  0
   13.1236   -8.1424    0.0000 O   0  0
   13.8298   -6.9148    0.0000 N   0  0
   14.5385   -7.3226    0.0000 C   0  0
   15.2460   -6.9126    0.0000 C   0  0
   15.9535   -6.5027    0.0000 C   0  0
    9.5836   -8.5568    0.0000 N   0  0
    8.8748   -8.1491    0.0000 C   0  0
    8.8736   -7.3314    0.0000 N   0  0
    9.5810   -6.9215    0.0000 C   0  0
   10.2898   -7.3292    0.0000 C   0  0
   10.9973   -6.9193    0.0000 C   0  0
   11.7060   -7.3270    0.0000 C   0  0
   11.7073   -8.1446    0.0000 C   0  0
   10.9998   -8.5546    0.0000 C   0  0
   10.2911   -8.1469    0.0000 C   0  0
   12.4161   -8.5524    0.0000 O   0  0
   12.0105  -10.6289    0.0000 O   0  0
   11.7566   -9.8517    0.0000 C   0  0
   12.4174   -9.3700    0.0000 C   0  0  2  0  0  0
   13.0796   -9.8496    0.0000 C   0  0
   12.8282  -10.6277    0.0000 C   0  0
    9.5798   -6.1038    0.0000 N   0  0
    8.8710   -5.6961    0.0000 C   0  0
    8.1635   -6.1060    0.0000 C   0  0
    7.4548   -5.6983    0.0000 C   0  0
    7.4535   -4.8806    0.0000 C   0  0
    8.1610   -4.4707    0.0000 C   0  0
    8.8697   -4.8784    0.0000 C   0  0
    6.7447   -4.4729    0.0000 F   0  0
    6.7473   -6.1082    0.0000 Cl  0  0
  1  2  1  0
  2  3  2  0
  2  4  1  0
  5  6  1  0
  6  7  3  0
  4  5  1  0
  8  9  1  0
  9 10  2  0
 10 11  1  0
 11 12  2  0
 12 13  1  0
 13 14  2  0
 14 15  1  0
 15 16  2  0
 16 17  1  0
  8 17  2  0
 12 17  1  0
 19 20  1  0
 20 21  1  0
 21 22  1  0
 22 23  1  0
 19 23  1  0
 21 18  1  1
 15 18  1  0
 25 26  1  0
 26 27  2  0
 27 28  1  0
 28 29  2  0
 29 30  1  0
 25 30  2  0
 28 31  1  0
 27 32  1  0
 24 25  1  0
 11 24  1  0
  1 14  1  0
M  END
> <chembl_id>
CHEMBL3092304

$$$$

  SciTegic04091414152D

 41 46  0  0  0  0            999 V2000
   23.1525  -12.2249    0.0000 N   0  0
   23.1513  -13.0522    0.0000 C   0  0
   23.8661  -13.4651    0.0000 N   0  0
   23.8643  -11.8121    0.0000 C   0  0
   24.5797  -12.2212    0.0000 C   0  0
   24.5805  -13.0480    0.0000 C   0  0
   25.2957  -13.4589    0.0000 N   0  0
   26.0108  -13.0442    0.0000 C   0  0
   26.0059  -12.2143    0.0000 N   0  0
   25.2901  -11.8070    0.0000 C   0  0
   22.4365  -13.4641    0.0000 N   0  0
   26.7269  -13.4540    0.0000 O   0  0
   26.7180  -11.7974    0.0000 C   0  0
   22.4359  -14.2891    0.0000 C   0  0
   21.7209  -14.6995    0.0000 C   0  0
   21.7199  -15.5237    0.0000 C   0  0
   22.4347  -15.9376    0.0000 C   0  0
   23.1518  -15.5212    0.0000 C   0  0
   23.1492  -14.6983    0.0000 C   0  0
   22.4351  -16.7626    0.0000 N   0  0
   21.7204  -17.1761    0.0000 C   0  0
   21.7189  -17.9975    0.0000 C   0  0
   22.4318  -18.4135    0.0000 N   0  0
   23.1478  -18.0018    0.0000 C   0  0
   23.1511  -17.1743    0.0000 C   0  0
   22.4291  -19.2385    0.0000 C   0  0
   25.2974  -14.2839    0.0000 C   0  0  1  0  0  0
   24.6333  -14.7696    0.0000 C   0  0
   24.8899  -15.5537    0.0000 C   0  0
   25.7149  -15.5520    0.0000 N   0  0
   25.9681  -14.7669    0.0000 C   0  0
   26.1221  -16.2696    0.0000 C   0  0
   25.7047  -16.9812    0.0000 C   0  0
   26.9471  -16.2754    0.0000 O   0  0
   26.1122  -17.6985    0.0000 C   0  0
   27.4322  -12.2083    0.0000 C   0  0
   28.1420  -11.7950    0.0000 C   0  0
   28.1413  -10.9697    0.0000 C   0  0
   27.4245  -10.5593    0.0000 C   0  0
   26.7085  -10.9743    0.0000 C   0  0
   21.0050  -15.9352    0.0000 F   0  0
  1  2  2  0
  2  3  1  0
  3  6  2  0
  5  4  2  0
  4  1  1  0
  5  6  1  0
  6  7  1  0
  7  8  1  0
  8  9  1  0
  9 10  1  0
 10  5  1  0
  2 11  1  0
  8 12  2  0
  9 13  1  0
 11 14  1  0
 14 15  2  0
 15 16  1  0
 16 17  2  0
 17 18  1  0
 18 19  2  0
 19 14  1  0
 17 20  1  0
 20 21  1  0
 20 25  1  0
 21 22  1  0
 22 23  1  0
 23 24  1  0
 24 25  1  0
 23 26  1  0
 27  7  1  6
 27 28  1  0
 28 29  1  0
 29 30  1  0
 30 31  1  0
 31 27  1  0
 30 32  1  0
 32 33  1  0
 32 34  2  0
 33 35  2  0
 13 36  2  0
 13 40  1  0
 36 37  1  0
 37 38  2  0
 38 39  1  0
 39 40  2  0
 16 41  1  0
M  END
> <chembl_id>
CHEMBL3086105

$$$$

  SciTegic01161211252D

 43 49  0  0  0  0            999 V2000
    4.2869   -3.2720    0.0000 C   0  0
    4.2608   -4.0996    0.0000 C   0  0
    4.9634   -4.5342    0.0000 C   0  0
    5.6926   -4.1422    0.0000 C   0  0
    5.7147   -3.3113    0.0000 C   0  0
    5.0114   -2.8805    0.0000 C   0  0
    6.3961   -4.5728    0.0000 C   0  0
    6.4148   -5.3988    0.0000 C   0  0
    7.1750   -4.2997    0.0000 N   0  0
    7.6758   -4.9561    0.0000 C   0  0
    7.2085   -5.6345    0.0000 N   0  0
    7.7093   -6.2888    0.0000 C   0  0
    8.4862   -6.0146    0.0000 C   0  0
    8.4655   -5.1910    0.0000 S   0  0
    5.7088   -5.8242    0.0000 C   0  0
    4.9863   -5.4223    0.0000 C   0  0
    4.2791   -5.8470    0.0000 C   0  0
    5.7246   -6.6462    0.0000 N   0  0
    5.0205   -7.0732    0.0000 C   0  0
    4.2894   -6.6742    0.0000 N   0  0
    5.0395   -7.8984    0.0000 N   0  0
    4.3320   -8.3241    0.0000 C   0  0
    3.6144   -7.9216    0.0000 C   0  0
    2.9074   -8.3464    0.0000 C   0  0
    4.3531   -9.1453    0.0000 C   0  0
    3.6490   -9.5725    0.0000 C   0  0
    2.9261   -9.1718    0.0000 C   0  0
    3.6652  -10.3980    0.0000 N   0  0
    2.9564  -10.8185    0.0000 C   0  0
    2.9706  -11.6404    0.0000 C   0  0
    3.6919  -12.0430    0.0000 O   0  0
    4.4005  -11.6174    0.0000 C   0  0
    4.3879  -10.7893    0.0000 C   0  0
    5.0327   -2.0933    0.0000 N   0  0
    4.3374   -1.6480    0.0000 C   0  0
    3.6041   -2.0275    0.0000 O   0  0
    4.3754   -0.8233    0.0000 C   0  0
    5.1086   -0.4437    0.0000 C   0  0
    5.8025   -0.8899    0.0000 C   0  0
    6.5352   -0.5110    0.0000 C   0  0
    6.5737    0.3146    0.0000 C   0  0
    5.8733    0.7599    0.0000 C   0  0
    5.1434    0.3785    0.0000 C   0  0
 22 23  2  0
  7  8  2  0
 23 24  1  0
 24 27  2  0
 11 12  1  0
 26 25  2  0
 25 22  1  0
 26 27  1  0
 12 13  2  0
 13 14  1  0
 14 10  1  0
  1  2  2  0
  3  4  2  0
 15 16  2  0
 16 17  1  0
 17 20  2  0
  8 11  1  0
 26 28  1  0
 28 29  1  0
 19 18  2  0
 18 15  1  0
  8 15  1  0
 19 20  1  0
 10  9  2  0
 28 33  1  0
 29 30  1  0
 30 31  1  0
 31 32  1  0
 32 33  1  0
  6 34  1  0
  9  7  1  0
  4  7  1  0
 10 11  1  0
  4  5  1  0
  2  3  1  0
 19 21  1  0
  5  6  2  0
 21 22  1  0
  6  1  1  0
 34 35  1  0
 35 36  2  0
 35 37  1  0
 37 38  1  0
 38 39  2  0
 39 40  1  0
 40 41  2  0
 41 42  1  0
 42 43  2  0
 43 38  1  0
M  END
> <chembl_id>
CHEMBL1090360

$$$$

  SciTegic04191617032D

 28 31  0  0  0  0            999 V2000
    1.2990   -0.7500    0.0000 C   0  0
    1.2990    0.7500    0.0000 C   0  0
    0.0000    1.5000    0.0000 N   0  0
   -1.2990    0.7500    0.0000 C   0  0
   -1.2990   -0.7500    0.0000 N   0  0
    0.0000   -1.5000    0.0000 C   0  0
    0.0031   -3.0008    0.0000 N   0  0
    1.3039   -3.7494    0.0000 C   0  0
    1.4469   -5.2297    0.0000 C   0  0
    2.9152   -5.5365    0.0000 C   0  0
    3.6607   -4.2349    0.0000 N   0  0
    2.6532   -3.1236    0.0000 N   0  0
    3.4071   -6.6311    0.0000 C   0  0
   -2.6003    1.4977    0.0000 O   0  0
   -3.8990    0.7455    0.0000 C   0  0
   -5.2007    1.4909    0.0000 C   0  0
   -6.4972    0.7364    0.0000 C   0  0
   -6.4920   -0.7636    0.0000 C   0  0
   -5.1903   -1.5091    0.0000 C   0  0
   -3.8939   -0.7546    0.0000 C   0  0
    2.5987    1.5004    0.0000 N   0  0
    3.8991    0.7525    0.0000 C   0  0
    5.1969    1.5046    0.0000 C   0  0
    5.1945    3.0046    0.0000 N   0  0
    3.8943    3.7525    0.0000 C   0  0
    2.5964    3.0004    0.0000 C   0  0
    6.2328    3.6062    0.0000 C   0  0
   -5.1862   -2.7091    0.0000 N   0  0
  1  2  2  0
  2  3  1  0
  3  4  2  0
  4  5  1  0
  5  6  2  0
  6  1  1  0
  6  7  1  0
  7  8  1  0
  8  9  1  0
  9 10  2  0
 10 11  1  0
 11 12  1  0
 12  8  2  0
 10 13  1  0
  4 14  1  0
 14 15  1  0
 15 16  2  0
 16 17  1  0
 17 18  2  0
 18 19  1  0
 19 20  2  0
 20 15  1  0
  2 21  1  0
 21 22  1  0
 21 26  1  0
 22 23  1  0
 23 24  1  0
 24 25  1  0
 25 26  1  0
 24 27  1  0
 19 28  1  0
M  END
> <chembl_id>
CHEMBL3604929

$$$$

  SciTegic01161211252D

 45 51  0  0  0  0            999 V2000
    6.4424   -2.7871    0.0000 N   0  0
    5.7150   -2.3970    0.0000 C   0  0
    5.0137   -2.8319    0.0000 O   0  0
    5.6892   -1.5722    0.0000 C   0  0
    6.3906   -1.1373    0.0000 C   0  0
    7.1166   -1.5283    0.0000 C   0  0
    7.8174   -1.0942    0.0000 C   0  0
    7.7920   -0.2684    0.0000 C   0  0
    7.0596    0.1213    0.0000 C   0  0
    6.3617   -0.3151    0.0000 C   0  0
    5.6970   -3.9658    0.0000 C   0  0
    5.6709   -4.7930    0.0000 C   0  0
    6.3733   -5.2273    0.0000 C   0  0
    7.1021   -4.8356    0.0000 C   0  0
    7.1243   -4.0050    0.0000 C   0  0
    6.4212   -3.5744    0.0000 C   0  0
    7.8054   -5.2659    0.0000 C   0  0
    7.8240   -6.0918    0.0000 C   0  0
    8.5840   -4.9930    0.0000 N   0  0
    9.0846   -5.6491    0.0000 C   0  0
    8.6174   -6.3273    0.0000 N   0  0
    9.1180   -6.9813    0.0000 C   0  0
    9.8947   -6.7073    0.0000 C   0  0
    9.8740   -5.8839    0.0000 S   0  0
    7.1184   -6.5168    0.0000 C   0  0
    6.3961   -6.1152    0.0000 C   0  0
    5.6892   -6.5396    0.0000 C   0  0
    7.1342   -7.3386    0.0000 N   0  0
    6.4303   -7.7655    0.0000 C   0  0
    5.6995   -7.3665    0.0000 N   0  0
    6.4493   -8.5902    0.0000 N   0  0
    5.7420   -9.0158    0.0000 C   0  0
    5.0248   -8.6134    0.0000 C   0  0
    4.3180   -9.0381    0.0000 C   0  0
    5.7632   -9.8367    0.0000 C   0  0
    5.0619  -10.2647    0.0000 C   0  0
    4.3367   -9.8631    0.0000 C   0  0
    3.6326  -10.2953    0.0000 N   0  0
    2.9098   -9.8950    0.0000 C   0  0
    2.2057  -10.3185    0.0000 C   0  0
    2.2182  -11.1441    0.0000 N   0  0
    2.9409  -11.5443    0.0000 C   0  0
    3.6513  -11.1190    0.0000 C   0  0
    1.5103  -11.5684    0.0000 C   0  0
    0.7888  -11.1677    0.0000 C   0  0
  2  3  2  0
  2  4  1  0
  4  5  1  0
  5  6  2  0
  6  7  1  0
  7  8  2  0
  8  9  1  0
  9 10  2  0
 10  5  1  0
  1  2  1  0
 20 21  1  0
 14 15  1  0
 12 13  1  0
 29 31  1  0
 15 16  2  0
 31 32  1  0
 16 11  1  0
 32 33  2  0
 17 18  2  0
 33 34  1  0
 34 37  2  0
 21 22  1  0
 36 35  2  0
 35 32  1  0
 22 23  2  0
 23 24  1  0
 24 20  1  0
 11 12  2  0
 13 14  2  0
 25 26  2  0
 36 37  1  0
 26 27  1  0
 27 30  2  0
 38 39  1  0
 18 21  1  0
 29 28  2  0
 28 25  1  0
 18 25  1  0
 29 30  1  0
 20 19  2  0
 38 43  1  0
 39 40  1  0
 40 41  1  0
 41 42  1  0
 42 43  1  0
 37 38  1  0
 19 17  1  0
 41 44  1  0
 14 17  1  0
 44 45  1  0
 16  1  1  0
M  END
> <chembl_id>
CHEMBL1090362

$$$$

  Mrv0541 05211314572D          

 23 25  0  0  0  0            999 V2000
    8.8467   -8.4077    0.0000 C   0  0  0  0  0  0  0  0  0  0  0  0
    8.5918   -9.1923    0.0000 C   0  0  0  0  0  0  0  0  0  0  0  0
    7.7668   -9.1923    0.0000 N   0  0  0  0  0  0  0  0  0  0  0  0
    7.5118   -8.4077    0.0000 N   0  0  0  0  0  0  0  0  0  0  0  0
    8.1793   -7.9228    0.0000 C   0  0  0  0  0  0  0  0  0  0  0  0
    8.1793   -7.0978    0.0000 C   0  0  0  0  0  0  0  0  0  0  0  0
    9.0767   -9.8598    0.0000 C   0  0  0  0  0  0  0  0  0  0  0  0
    6.7272   -8.1528    0.0000 C   0  0  0  0  0  0  0  0  0  0  0  0
    6.5557   -7.3458    0.0000 N   0  0  0  0  0  0  0  0  0  0  0  0
    6.1141   -8.7048    0.0000 S   0  0  0  0  0  0  0  0  0  0  0  0
    8.7411  -10.6134    0.0000 C   0  0  0  0  0  0  0  0  0  0  0  0
    9.2261  -11.2809    0.0000 C   0  0  0  0  0  0  0  0  0  0  0  0
   10.0466  -11.1947    0.0000 C   0  0  0  0  0  0  0  0  0  0  0  0
   10.3821  -10.4410    0.0000 C   0  0  0  0  0  0  0  0  0  0  0  0
    9.8972   -9.7735    0.0000 C   0  0  0  0  0  0  0  0  0  0  0  0
    7.4648   -6.6853    0.0000 C   0  0  0  0  0  0  0  0  0  0  0  0
    7.4648   -5.8603    0.0000 C   0  0  0  0  0  0  0  0  0  0  0  0
    8.1793   -5.4478    0.0000 C   0  0  0  0  0  0  0  0  0  0  0  0
    8.8938   -5.8603    0.0000 C   0  0  0  0  0  0  0  0  0  0  0  0
    8.8938   -6.6853    0.0000 C   0  0  0  0  0  0  0  0  0  0  0  0
   11.2026  -10.3547    0.0000 Cl  0  0  0  0  0  0  0  0  0  0  0  0
   10.5315  -11.8621    0.0000 Cl  0  0  0  0  0  0  0  0  0  0  0  0
    8.1793   -4.6228    0.0000 O   0  0  0  0  0  0  0  0  0  0  0  0
  1  2  1  0  0  0  0
 11 12  1  0  0  0  0
  5  6  1  0  0  0  0
 12 13  2  0  0  0  0
 13 14  1  0  0  0  0
  2  7  1  0  0  0  0
 14 15  2  0  0  0  0
 15  7  1  0  0  0  0
  2  3  2  0  0  0  0
  6 16  2  0  0  0  0
  4  8  1  0  0  0  0
 16 17  1  0  0  0  0
  3  4  1  0  0  0  0
 17 18  2  0  0  0  0
  8  9  1  0  0  0  0
 18 19  1  0  0  0  0
  4  5  1  0  0  0  0
 19 20  2  0  0  0  0
 20  6  1  0  0  0  0
  8 10  2  0  0  0  0
 14 21  1  0  0  0  0
  5  1  1  0  0  0  0
 13 22  1  0  0  0  0
  7 11  2  0  0  0  0
 18 23  1  0  0  0  0
M  END
> <chembl_id>
CHEMBL1173667

$$$$

  SciTegic05221516342D

 39 42  0  0  0  0            999 V2000
   34.0990  -28.7554    0.0000 C   0  0
   34.5076  -28.0463    0.0000 C   0  0
   34.0990  -27.3414    0.0000 C   0  0
   34.5076  -26.6323    0.0000 C   0  0
   34.5076  -29.4604    0.0000 O   0  0
   33.2819  -28.7554    0.0000 N   0  0
   35.3248  -28.0463    0.0000 F   0  0
   35.3248  -26.6323    0.0000 N   0  0
   35.7334  -25.9232    0.0000 C   0  0
   35.7334  -27.3414    0.0000 C   0  0
   31.6475  -31.5835    0.0000 N   0  0
   30.8303  -31.5835    0.0000 C   0  0
   30.4217  -30.8786    0.0000 N   0  0
   30.8303  -30.1695    0.0000 C   0  0
   31.6475  -30.1695    0.0000 C   0  0
   32.0561  -29.4604    0.0000 C   0  0
   32.8733  -29.4604    0.0000 C   0  0
   33.2819  -30.1695    0.0000 C   0  0
   32.8733  -30.8786    0.0000 C   0  0
   32.0561  -30.8786    0.0000 C   0  0
   34.0990  -30.1695    0.0000 O   0  0
   34.5076  -30.8786    0.0000 C   0  0
   35.3248  -30.8786    0.0000 C   0  0
   30.4217  -29.4604    0.0000 N   0  0
   29.6004  -29.4604    0.0000 C   0  0
   29.1918  -30.1695    0.0000 C   0  0
   28.3746  -30.1695    0.0000 C   0  0
   27.9660  -29.4604    0.0000 C   0  0
   28.3746  -28.7554    0.0000 C   0  0
   29.1918  -28.7554    0.0000 C   0  0
   27.1488  -29.4604    0.0000 O   0  0
   27.1488  -28.0463    0.0000 C   0  0
   26.7402  -28.7554    0.0000 C   0  0
   25.9230  -28.7554    0.0000 C   0  0
   25.5144  -28.0463    0.0000 C   0  0
   25.9230  -27.3414    0.0000 C   0  0
   26.7402  -27.3414    0.0000 N   0  0
   25.5144  -26.6323    0.0000 C   0  0
   27.9660  -30.8786    0.0000 Cl  0  0
  1  2  1  0
  2  3  2  0
  3  4  1  0
  1  5  2  0
  1  6  1  0
  2  7  1  0
  8  9  1  0
  8 10  1  0
  4  8  1  0
 11 12  1  0
 12 13  2  0
 13 14  1  0
 14 15  2  0
 15 16  1  0
 16 17  2  0
 17 18  1  0
 18 19  2  0
 19 20  1  0
 11 20  2  0
 15 20  1  0
 22 23  1  0
 21 22  1  0
 18 21  1  0
 25 26  1  0
 26 27  2  0
 27 28  1  0
 28 29  2  0
 29 30  1  0
 25 30  2  0
 32 33  1  0
 33 34  2  0
 34 35  1  0
 35 36  2  0
 36 37  1  0
 32 37  2  0
 36 38  1  0
 31 33  1  0
 28 31  1  0
 27 39  1  0
 24 25  1  0
 14 24  1  0
  6 17  1  0
M  END
> <chembl_id>
CHEMBL3357650

$$$$

  SciTegic05061409512D

 24 26  0  0  0  0            999 V2000
   35.4196   -5.2649    0.0000 N   0  0
   36.1293   -4.8555    0.0000 C   0  0
   36.1264   -4.0328    0.0000 N   0  0
   35.4178   -3.6275    0.0000 C   0  0
   34.7116   -4.8559    0.0000 C   0  0
   34.7139   -4.0340    0.0000 C   0  0
   34.0043   -3.6229    0.0000 C   0  0
   33.2921   -4.0325    0.0000 C   0  0
   33.2938   -4.8576    0.0000 C   0  0
   34.0038   -5.2650    0.0000 C   0  0
   35.4161   -2.8103    0.0000 N   0  0
   32.5843   -3.6241    0.0000 N   0  0
   31.8767   -4.0328    0.0000 C   0  0
   31.1689   -3.6243    0.0000 C   0  0
   31.8768   -4.8500    0.0000 O   0  0
   30.4612   -4.0330    0.0000 C   0  0
   36.1230   -2.4003    0.0000 C   0  0
   36.8319   -2.8124    0.0000 C   0  0
   37.5383   -2.4031    0.0000 C   0  0
   37.5370   -1.5850    0.0000 C   0  0
   36.8235   -1.1780    0.0000 C   0  0
   36.1200   -1.5898    0.0000 C   0  0
   35.4103   -1.1846    0.0000 F   0  0
   36.8189   -0.3609    0.0000 C   0  0
  5  1  1  0
  1  2  2  0
  2  3  1  0
  3  4  2  0
  4  6  1  0
  5  6  1  0
  6  7  2  0
  7  8  1  0
  8  9  2  0
  9 10  1  0
 10  5  2  0
  4 11  1  0
  8 12  1  0
 12 13  1  0
 13 14  1  0
 13 15  2  0
 14 16  2  0
 11 17  1  0
 17 18  2  0
 18 19  1  0
 19 20  2  0
 20 21  1  0
 21 22  2  0
 22 17  1  0
 22 23  1  0
 21 24  1  0
M  END
> <chembl_id>
CHEMBL3133904

$$$$

  SciTegic09291413392D

 47 52  0  0  0  0            999 V2000
    2.5976   -4.6054    0.0000 C   0  0
    3.0101   -3.8909    0.0000 C   0  0
    2.5976   -3.1765    0.0000 C   0  0
    1.7726   -3.1765    0.0000 C   0  0
    1.3601   -3.8909    0.0000 C   0  0
    1.7726   -4.6054    0.0000 C   0  0
    3.0101   -5.3199    0.0000 S   0  0
    3.7246   -4.9074    0.0000 O   0  0
    3.4226   -6.0343    0.0000 O   0  0
    2.2956   -5.7324    0.0000 N   0  0
    1.0826   -1.1563    0.0000 N   0  0
    0.3681   -1.5688    0.0000 N   0  0
    0.5396   -2.3758    0.0000 C   0  0
    1.3601   -2.4620    0.0000 C   0  0
    1.6957   -1.7083    0.0000 C   0  0
    1.1688   -0.3358    0.0000 C   0  0
    2.2956   -6.5574    0.0000 C   0  0
    3.0101   -6.9699    0.0000 C   0  0
    3.0101   -7.7949    0.0000 C   0  0
    2.2956   -8.2074    0.0000 C   0  0
    1.5812   -7.7949    0.0000 C   0  0
    1.5812   -6.9699    0.0000 C   0  0
    2.2956   -9.0324    0.0000 O   0  0
    0.1522  -10.2699    0.0000 N   0  0
    0.1522   -9.4449    0.0000 C   0  0
    0.8667   -9.0324    0.0000 C   0  0
    1.5812   -9.4449    0.0000 C   0  0
    1.5812  -10.2699    0.0000 C   0  0
    2.2956  -10.6824    0.0000 C   0  0
    2.2956  -11.5074    0.0000 C   0  0
    1.5812  -11.9199    0.0000 C   0  0
    0.8667  -11.5074    0.0000 C   0  0
    0.8667  -10.6824    0.0000 C   0  0
    1.5812  -12.7449    0.0000 O   0  0
    0.8667  -13.1574    0.0000 C   0  0
    0.8667  -13.9824    0.0000 C   0  0
    0.1522  -14.3949    0.0000 C   0  0
    0.1522  -15.2199    0.0000 N   0  0
    0.8667  -15.6324    0.0000 C   0  0
    0.8667  -16.4574    0.0000 C   0  0
    0.1522  -16.8699    0.0000 N   0  0
   -0.5622  -16.4574    0.0000 C   0  0
   -0.5622  -15.6324    0.0000 C   0  0
    0.1522  -17.6949    0.0000 C   0  0
    3.0101  -11.9199    0.0000 O   0  0
    3.0101  -12.7449    0.0000 C   0  0
    3.7246   -8.2074    0.0000 F   0  0
  1  2  1  0
  2  3  2  0
  3  4  1  0
  4  5  2  0
  5  6  1  0
  1  6  2  0
  7  8  2  0
  7  9  2  0
  7 10  1  0
  1  7  1  0
 11 12  1  0
 12 13  2  0
 13 14  1  0
 14 15  2  0
 11 15  1  0
 11 16  1  0
  4 14  1  0
 17 18  1  0
 18 19  2  0
 19 20  1  0
 20 21  2  0
 21 22  1  0
 17 22  2  0
 24 25  2  0
 25 26  1  0
 26 27  2  0
 27 28  1  0
 28 29  2  0
 29 30  1  0
 30 31  2  0
 31 32  1  0
 32 33  2  0
 24 33  1  0
 28 33  1  0
 35 36  1  0
 36 37  1  0
 34 35  1  0
 38 39  1  0
 39 40  1  0
 40 41  1  0
 41 42  1  0
 42 43  1  0
 38 43  1  0
 41 44  1  0
 37 38  1  0
 31 34  1  0
 45 46  1  0
 30 45  1  0
 23 27  1  0
 20 23  1  0
 19 47  1  0
 10 17  1  0
M  END
> <chembl_id>
CHEMBL3263966

$$$$

  SciTegic12201616162D

 39 43  0  0  0  0            999 V2000
    3.8942   -1.4964    0.0000 N   0  0
    5.1929   -0.7441    0.0000 C   0  0
    5.1908    0.4559    0.0000 O   0  0
    6.4942   -1.4919    0.0000 N   0  0
    7.7928   -0.7396    0.0000 C   0  0
    9.0941   -1.4873    0.0000 C   0  0
   10.3928   -0.7351    0.0000 N   0  0
   11.6945   -1.4805    0.0000 C   0  0
   12.9909   -0.7260    0.0000 C   0  0
   12.9858    0.7740    0.0000 C   0  0
   11.6841    1.5195    0.0000 C   0  0
   10.3877    0.7650    0.0000 C   0  0
   -1.2964    1.4973    0.0000 N   0  0
   -2.6111    0.7486    0.0000 C   0  0
   -2.6111   -0.7486    0.0000 N   0  0
   -1.2964   -1.4973    0.0000 C   0  0
    0.0000   -0.7486    0.0000 C   0  0
    1.2964   -1.4973    0.0000 C   0  0
    2.5929   -0.7486    0.0000 C   0  0
    2.5929    0.7486    0.0000 C   0  0
    1.2964    1.4973    0.0000 C   0  0
    0.0000    0.7486    0.0000 C   0  0
   -1.2907   -2.9981    0.0000 N   0  0
   -2.5870   -3.7544    0.0000 C   0  0
   -2.5835   -5.2544    0.0000 C   0  0
   -3.8807   -6.0076    0.0000 C   0  0
   -5.1815   -5.2608    0.0000 C   0  0
   -5.1852   -3.7608    0.0000 C   0  0
   -3.8880   -3.0076    0.0000 C   0  0
   -6.4810   -6.0117    0.0000 O   0  0
   -7.7815   -5.2626    0.0000 C   0  0
   -9.0810   -6.0135    0.0000 C   0  0
  -10.3819   -5.2667    0.0000 C   0  0
  -11.6791   -6.0199    0.0000 C   0  0
  -11.6755   -7.5199    0.0000 C   0  0
  -10.3746   -8.2667    0.0000 C   0  0
   -9.0774   -7.5136    0.0000 C   0  0
  -12.7198   -5.4224    0.0000 F   0  0
   -3.8777   -7.2076    0.0000 Cl  0  0
  1  2  1  0
  2  3  2  0
  2  4  1  0
  5  6  1  0
  7  8  1  0
  8  9  1  0
  9 10  1  0
 10 11  1  0
 11 12  1  0
  7 12  1  0
  6  7  1  0
  4  5  1  0
 13 14  1  0
 14 15  2  0
 15 16  1  0
 16 17  2  0
 17 18  1  0
 18 19  2  0
 19 20  1  0
 20 21  2  0
 21 22  1  0
 13 22  2  0
 17 22  1  0
 24 25  1  0
 25 26  2  0
 26 27  1  0
 27 28  2  0
 28 29  1  0
 24 29  2  0
 31 32  1  0
 32 33  1  0
 33 34  2  0
 34 35  1  0
 35 36  2  0
 36 37  1  0
 32 37  2  0
 34 38  1  0
 30 31  1  0
 27 30  1  0
 26 39  1  0
 23 24  1  0
 16 23  1  0
  1 19  1  0
M  END
> <chembl_id>
CHEMBL3814021

$$$$

  SciTegic04091414352D

 36 40  0  0  0  0            999 V2000
    7.5265   -6.0578    0.0000 N   0  0
    8.2421   -6.4534    0.0000 C   0  0
    8.2573   -7.2709    0.0000 O   0  0
    8.9425   -6.0315    0.0000 N   0  0
    9.6581   -6.4271    0.0000 C   0  0
   10.3585   -6.0051    0.0000 C   0  0
   11.0741   -6.4007    0.0000 N   0  0
   11.8148   -6.0543    0.0000 C   0  0
   12.3731   -6.6516    0.0000 C   0  0
   11.9775   -7.3672    0.0000 C   0  0
   11.1747   -7.2122    0.0000 C   0  0
    4.7250   -7.7456    0.0000 N   0  0
    4.0094   -7.3500    0.0000 C   0  0
    3.9941   -6.5325    0.0000 N   0  0
    4.6945   -6.1105    0.0000 C   0  0
    5.4101   -6.5061    0.0000 C   0  0
    6.1105   -6.0842    0.0000 C   0  0
    6.8261   -6.4798    0.0000 C   0  0
    6.8413   -7.2973    0.0000 C   0  0
    6.1410   -7.7192    0.0000 C   0  0
    5.4253   -7.3236    0.0000 C   0  0
    7.5569   -7.6929    0.0000 O   0  0
    7.1868   -9.7761    0.0000 O   0  0
    6.9197   -9.0032    0.0000 C   0  0
    7.5722   -8.5104    0.0000 C   0  0  2  0  0  0
    8.2425   -8.9786    0.0000 C   0  0
    8.0043   -9.7608    0.0000 C   0  0
    4.6793   -5.2930    0.0000 N   0  0
    3.9637   -4.8974    0.0000 C   0  0
    3.2633   -5.3194    0.0000 C   0  0
    2.5477   -4.9238    0.0000 C   0  0
    2.5325   -4.1063    0.0000 C   0  0
    3.2329   -3.6843    0.0000 C   0  0
    3.9485   -4.0799    0.0000 C   0  0
    1.8169   -3.7107    0.0000 F   0  0
    1.8473   -5.3457    0.0000 Cl  0  0
  1  2  1  0
  2  3  2  0
  2  4  1  0
  5  6  1  0
  7  8  1  0
  8  9  1  0
  9 10  1  0
 10 11  1  0
  7 11  1  0
  6  7  1  0
  4  5  1  0
 12 13  1  0
 13 14  2  0
 14 15  1  0
 15 16  2  0
 16 17  1  0
 17 18  2  0
 18 19  1  0
 19 20  2  0
 20 21  1  0
 12 21  2  0
 16 21  1  0
 23 24  1  0
 24 25  1  0
 25 26  1  0
 26 27  1  0
 23 27  1  0
 25 22  1  1
 19 22  1  0
 29 30  1  0
 30 31  2  0
 31 32  1  0
 32 33  2  0
 33 34  1  0
 29 34  2  0
 32 35  1  0
 31 36  1  0
 28 29  1  0
 15 28  1  0
  1 18  1  0
M  END
> <chembl_id>
CHEMBL3092308

$$$$

  SciTegic01181116592D

 41 47  0  0  0  0            999 V2000
   20.7560   -1.3782    0.0000 C   0  0  2  0  0  0
   20.2066   -1.9895    0.0000 C   0  0
   20.4593   -2.7709    0.0000 C   0  0
   21.2657   -2.9458    0.0000 C   0  0  1  0  0  0
   21.8191   -2.3329    0.0000 C   0  0
   21.5660   -1.5450    0.0000 C   0  0
   20.4983   -0.5947    0.0000 N   0  0
   24.8107    2.8299    0.0000 C   0  0
   25.5269    3.2433    0.0000 C   0  0
   25.5241    4.0746    0.0000 C   0  0
   24.8089    4.4904    0.0000 C   0  0
   24.0961    3.2428    0.0000 C   0  0
   24.0973    4.0767    0.0000 C   0  0
   23.3094    4.3359    0.0000 N   0  0
   22.8213    3.6591    0.0000 C   0  0
   23.3074    2.9879    0.0000 O   0  0
   21.9965    3.6603    0.0000 N   0  0
   21.5830    2.9465    0.0000 C   0  0
   20.7600    2.9510    0.0000 C   0  0
   20.3466    2.2382    0.0000 C   0  0
   20.7580    1.5222    0.0000 C   0  0
   21.5871    1.5236    0.0000 C   0  0
   21.9967    2.2372    0.0000 C   0  0
   20.5044    0.7377    0.0000 C   0  0
   20.9844    0.0738    0.0000 N   0  0
   19.7156   -0.3399    0.0000 C   0  0
   19.7174    0.4841    0.0000 C   0  0
   19.0058    0.8958    0.0000 C   0  0
   18.2920    0.4847    0.0000 N   0  0
   18.2942   -0.3424    0.0000 C   0  0
   19.0063   -0.7504    0.0000 N   0  0
   21.5184   -3.7309    0.0000 N   0  0
   20.9660   -4.3408    0.0000 C   0  0
   21.2157   -5.1231    0.0000 C   0  0
   22.0214   -5.3011    0.0000 N   0  0
   22.5772   -4.6902    0.0000 C   0  0
   22.3272   -3.9015    0.0000 C   0  0
   22.2713   -6.0871    0.0000 C   0  0
   19.0068    1.7206    0.0000 N   0  0
   24.8105    2.0051    0.0000 C   0  0
   24.8133    1.1844    0.0000 N   0  0
 19 20  1  0
  9 10  1  0
 20 21  2  0
  3  4  1  0
 21 22  1  0
 10 11  2  0
 22 23  2  0
 23 18  1  0
 11 13  1  0
 21 24  1  0
 24 27  1  0
 12 13  2  0
 26  7  1  0
  7 25  1  0
 25 24  2  0
  4  5  1  0
  5  6  1  0
 26 27  2  0
  1  2  1  0
 27 28  1  0
  1  7  1  1
 28 29  2  0
 29 30  1  0
 13 14  1  0
 30 31  2  0
 31 26  1  0
 14 15  2  0
  4 32  1  1
 32 33  1  0
 15 16  1  0
 16 12  1  0
 12  8  1  0
 15 17  1  0
  1  6  1  0
 32 37  1  0
 33 34  1  0
 34 35  1  0
 35 36  1  0
 36 37  1  0
 17 18  1  0
 35 38  1  0
  8  9  2  0
 28 39  1  0
 18 19  2  0
  8 40  1  0
  2  3  1  0
 40 41  3  0
M  END
> <chembl_id>
CHEMBL1256419

$$$$

  SciTegic01181116592D

 40 46  0  0  0  0            999 V2000
   -1.6434  -10.7869    0.0000 C   0  0  2  0  0  0
   -2.1929  -11.3983    0.0000 C   0  0
   -1.9402  -12.1799    0.0000 C   0  0
   -1.1335  -12.3548    0.0000 C   0  0  1  0  0  0
   -0.5800  -11.7417    0.0000 C   0  0
   -0.8331  -10.9538    0.0000 C   0  0
   -1.9012  -10.0032    0.0000 N   0  0
    2.4122   -6.5777    0.0000 C   0  0
    3.1287   -6.1644    0.0000 C   0  0
    3.1258   -5.3338    0.0000 C   0  0
    2.4104   -4.9247    0.0000 C   0  0
    1.6974   -6.1648    0.0000 C   0  0
    1.6987   -5.3359    0.0000 C   0  0
    0.9107   -5.0786    0.0000 N   0  0
    0.4224   -5.7485    0.0000 C   0  0
    0.9087   -6.4197    0.0000 O   0  0
   -0.4026   -5.7473    0.0000 N   0  0
   -0.8161   -6.4611    0.0000 C   0  0
   -1.6394   -6.4566    0.0000 C   0  0
   -2.0529   -7.1697    0.0000 C   0  0
   -1.6414   -7.8857    0.0000 C   0  0
   -0.8121   -7.8843    0.0000 C   0  0
   -0.4024   -7.1707    0.0000 C   0  0
   -1.8950   -8.6705    0.0000 C   0  0
   -1.4150   -9.3346    0.0000 N   0  0
   -2.6841   -9.7483    0.0000 C   0  0
   -2.6823   -8.9241    0.0000 C   0  0
   -3.3940   -8.5123    0.0000 C   0  0
   -4.1080   -8.9235    0.0000 N   0  0
   -4.1058   -9.7508    0.0000 C   0  0
   -3.3935  -10.1589    0.0000 N   0  0
   -0.8808  -13.1401    0.0000 N   0  0
   -1.4334  -13.7501    0.0000 C   0  0
   -1.1836  -14.5326    0.0000 C   0  0
   -0.3776  -14.7106    0.0000 N   0  0
    0.1782  -14.0996    0.0000 C   0  0
   -0.0719  -13.3107    0.0000 C   0  0
   -0.1278  -15.4969    0.0000 C   0  0
   -3.3930   -7.6873    0.0000 N   0  0
    2.4120   -7.4027    0.0000 Cl  0  0
  2  3  1  0
 19 20  1  0
  9 10  1  0
 20 21  2  0
  3  4  1  0
 21 22  1  0
 10 11  2  0
 22 23  2  0
 23 18  1  0
 11 13  1  0
 21 24  1  0
 24 27  1  0
 12 13  2  0
 26  7  1  0
  7 25  1  0
 25 24  2  0
  4  5  1  0
  5  6  1  0
 26 27  2  0
  1  2  1  0
 27 28  1  0
  1  7  1  1
 28 29  2  0
 29 30  1  0
 13 14  1  0
 30 31  2  0
 31 26  1  0
 14 15  2  0
  4 32  1  1
 32 33  1  0
 15 16  1  0
 16 12  1  0
 12  8  1  0
 15 17  1  0
  1  6  1  0
 32 37  1  0
 33 34  1  0
 34 35  1  0
 35 36  1  0
 36 37  1  0
 17 18  1  0
 35 38  1  0
  8  9  2  0
 28 39  1  0
 18 19  2  0
  8 40  1  0
M  END
> <chembl_id>
CHEMBL1257888

$$$$

  SciTegic02271217242D

 28 31  0  0  0  0            999 V2000
   -2.9919   -2.4235    0.0000 N   0  0
   -2.2755   -2.0102    0.0000 C   0  0
   -2.2784   -1.1797    0.0000 N   0  0
   -2.9937   -0.7705    0.0000 C   0  0
   -3.7068   -2.0107    0.0000 C   0  0
   -3.7055   -1.1818    0.0000 C   0  0
   -4.4935   -0.9244    0.0000 N   0  0
   -4.9818   -1.5943    0.0000 C   0  0
   -4.4955   -2.2656    0.0000 C   0  0
   -2.9956    0.0545    0.0000 N   0  0
   -2.2820    0.4685    0.0000 C   0  0
   -1.5697    0.0546    0.0000 C   0  0
   -0.8566    0.4680    0.0000 C   0  0
   -0.8580    1.2939    0.0000 C   0  0
   -1.5784    1.7047    0.0000 C   0  0
   -2.2885    1.2889    0.0000 C   0  0
   -0.1415    0.0568    0.0000 Cl  0  0
   -0.1450    1.7089    0.0000 O   0  0
    0.5709    1.2989    0.0000 C   0  0
    0.5710    0.4739    0.0000 C   0  0
    1.2860    0.0640    0.0000 C   0  0
    2.0000    0.4791    0.0000 C   0  0
    1.9945    1.3083    0.0000 C   0  0
    1.2788    1.7145    0.0000 C   0  0
    1.2728    2.5395    0.0000 C   0  0
    1.9842    2.9572    0.0000 F   0  0
    0.5553    2.9468    0.0000 F   0  0
    1.2667    3.3667    0.0000 F   0  0
  2  3  1  0
 13 14  2  0
 14 15  1  0
  3  4  2  0
 15 16  2  0
 16 11  1  0
  6  7  1  0
 13 17  1  0
  7  8  1  0
 14 18  1  0
  8  9  2  0
 18 19  1  0
  9  5  1  0
 19 20  2  0
  4  6  1  0
 20 21  1  0
  4 10  1  0
 21 22  2  0
  5  6  2  0
 22 23  1  0
 10 11  1  0
 23 24  2  0
 24 19  1  0
  1  2  2  0
 24 25  1  0
 11 12  2  0
 25 26  1  0
  5  1  1  0
 25 27  1  0
 12 13  1  0
 25 28  1  0
M  END
> <chembl_id>
CHEMBL1922904

$$$$

  SciTegic12201611502D

 25 28  0  0  0  0            999 V2000
   -2.1332   -2.2973    0.0000 N   0  0
   -3.4277   -1.5498    0.0000 C   0  0
   -3.4277    0.0000    0.0000 N   0  0
   -2.1332    0.6928    0.0000 C   0  0
   -0.8205    0.0000    0.0000 C   0  0
    0.4558    0.6928    0.0000 C   0  0
    1.7503    0.0000    0.0000 C   0  0
    1.7503   -1.5498    0.0000 C   0  0
    0.4558   -2.2973    0.0000 C   0  0
   -0.8205   -1.5498    0.0000 C   0  0
    0.4558    2.1879    0.0000 O   0  0
    3.0631    0.6928    0.0000 O   0  0
    3.0631    2.1879    0.0000 C   0  0
    1.7503    2.9537    0.0000 C   0  0
   -2.1454    2.1947    0.0000 N   0  0
   -3.4508    2.9353    0.0000 C   0  0
   -3.4653    4.4352    0.0000 C   0  0
   -6.0632    4.4104    0.0000 C   0  0
   -4.7427    2.1729    0.0000 C   0  0
   -4.7714    5.1728    0.0000 C   0  0
   -6.0489    2.9104    0.0000 C   0  0
   -7.1082    5.0004    0.0000 C   0  0
    3.0410   -2.3153    0.0000 O   0  0
    3.0239   -3.8160    0.0000 C   0  0
    4.0559   -4.4284    0.0000 C   0  0
  1  2  1  0
  2  3  2  0
  3  4  1  0
  4  5  2  0
  5  6  1  0
  6  7  2  0
  7  8  1  0
  8  9  2  0
  9 10  1  0
  1 10  2  0
  5 10  1  0
 12 13  1  0
 13 14  1  0
 11 14  1  0
  6 11  1  0
  7 12  1  0
  4 15  1  0
 16 17  1  0
 16 19  2  0
 17 20  2  0
 18 20  1  0
 18 21  2  0
 19 21  1  0
 18 22  1  0
 15 16  1  0
 24 25  1  0
 23 24  1  0
  8 23  1  0
M  END
> <chembl_id>
CHEMBL3805859

$$$$

  SciTegic09261414462D

 25 27  0  0  0  0            999 V2000
    8.6793   -4.8687    0.0000 N   0  0
    9.3890   -4.4592    0.0000 C   0  0
    9.3861   -3.6366    0.0000 N   0  0
    8.6775   -3.2313    0.0000 C   0  0
    7.9712   -4.4597    0.0000 C   0  0
    7.9725   -3.6432    0.0000 C   0  0
    7.1963   -3.3897    0.0000 C   0  0
    6.7153   -4.0496    0.0000 C   0  0
    7.1943   -4.7108    0.0000 S   0  0
    8.6737   -2.4141    0.0000 N   0  0
    9.3796   -2.0023    0.0000 C   0  0
   10.0870   -2.4124    0.0000 C   0  0
   10.7923   -2.0012    0.0000 C   0  0
   10.7890   -1.1832    0.0000 C   0  0
   10.0744   -0.7780    0.0000 C   0  0
    9.3720   -1.1915    0.0000 C   0  0
    5.8981   -4.0484    0.0000 N   0  0
    5.4905   -3.3401    0.0000 C   0  0
    4.6733   -3.3389    0.0000 C   0  0
    5.9001   -2.6330    0.0000 O   0  0
   11.4942   -0.7704    0.0000 F   0  0
   11.5017   -2.4069    0.0000 Cl  0  0
    4.2658   -2.6306    0.0000 C   0  0
    3.4486   -2.6294    0.0000 C   0  0
    3.0410   -1.9211    0.0000 C   0  0
  5  1  1  0
  1  2  2  0
  2  3  1  0
  3  4  2  0
  4  6  1  0
  5  6  2  0
  6  7  1  0
  7  8  2  0
  8  9  1  0
  9  5  1  0
  4 10  1  0
 10 11  1  0
 11 12  2  0
 12 13  1  0
 13 14  2  0
 14 15  1  0
 15 16  2  0
 16 11  1  0
  8 17  1  0
 17 18  1  0
 18 19  1  0
 18 20  2  0
 14 21  1  0
 13 22  1  0
 19 23  1  0
 23 24  1  0
 24 25  1  0
M  END
> <chembl_id>
CHEMBL3233756

$$$$

  SciTegic11131810162D

 41 45  0  0  1  0            999 V2000
    3.6387   -0.8963    0.0000 C   0  0
    2.6003   -1.4977    0.0000 C   0  0
    1.2990   -0.7500    0.0000 C   0  0
    1.2990    0.7500    0.0000 N   0  0
    0.0000    1.5000    0.0000 C   0  0
    0.0031    3.0008    0.0000 C   0  0
    1.0432    3.5994    0.0000 O   0  0
   -1.0351    3.6026    0.0000 N   0  0
   -1.2990    0.7500    0.0000 C   0  0
   -2.6003    1.4977    0.0000 N   0  0
   -3.8990    0.7455    0.0000 C   0  0
   -5.2007    1.4909    0.0000 C   0  0
   -6.4972    0.7364    0.0000 C   0  0
   -6.4920   -0.7636    0.0000 C   0  0
   -5.1903   -1.5091    0.0000 C   0  0
   -3.8939   -0.7546    0.0000 C   0  0
   -7.7890   -1.5185    0.0000 N   0  0
   -9.0920   -0.7751    0.0000 C   0  0
  -10.3872   -1.5316    0.0000 C   0  0
  -10.3796   -3.0316    0.0000 C   0  0
   -9.0768   -3.7750    0.0000 C   0  0
   -7.7816   -3.0185    0.0000 C   0  0
  -11.6755   -3.7885    0.0000 N   0  0
  -12.9796   -3.0472    0.0000 C   0  0
  -14.2736   -3.8058    0.0000 C   0  0
  -14.2637   -5.3058    0.0000 N   0  0
  -15.2989   -5.9127    0.0000 C   0  0
  -12.9597   -6.0472    0.0000 C   0  0
  -11.6656   -5.2886    0.0000 C   0  0
   -1.2990   -0.7500    0.0000 N   0  0
    0.0000   -1.5000    0.0000 C   0  0
   -0.0031   -3.0008    0.0000 O   0  0
   -1.3039   -3.7494    0.0000 C   0  0  2  0  0  0
   -1.4469   -5.2298    0.0000 C   0  0
   -2.9152   -5.5365    0.0000 C   0  0
   -3.6607   -4.2349    0.0000 N   0  0
   -2.6531   -3.1237    0.0000 C   0  0
   -5.1498   -4.0700    0.0000 C   0  0
   -5.8603   -5.0371    0.0000 O   0  0
   -5.7535   -2.6960    0.0000 C   0  0
   -6.9463   -2.5639    0.0000 C   0  0
  1  2  1  0
  2  3  1  0
  3  4  2  0
  4  5  1  0
  5  6  1  0
  6  7  2  0
  6  8  1  0
  5  9  2  0
  9 10  1  0
 10 11  1  0
 11 12  2  0
 12 13  1  0
 13 14  2  0
 14 15  1  0
 15 16  2  0
 16 11  1  0
 14 17  1  0
 17 18  1  0
 18 19  1  0
 19 20  1  0
 20 21  1  0
 21 22  1  0
 22 17  1  0
 20 23  1  0
 23 24  1  0
 24 25  1  0
 25 26  1  0
 26 27  1  0
 26 28  1  0
 28 29  1  0
 29 23  1  0
  9 30  1  0
 30 31  2  0
 31  3  1  0
 31 32  1  0
 33 32  1  6
 33 34  1  0
 34 35  1  0
 35 36  1  0
 36 37  1  0
 37 33  1  0
 36 38  1  0
 38 39  2  0
 38 40  1  0
 40 41  2  0
M  END
> <chembl_id>
CHEMBL3663929

$$$$

  SciTegic06051313552D

 26 29  0  0  0  0            999 V2000
    1.5504  -12.2000    0.0000 C   0  0
    1.5493  -13.0196    0.0000 C   0  0
    2.2573  -13.4286    0.0000 C   0  0
    2.9670  -13.0191    0.0000 C   0  0
    2.9642  -12.1964    0.0000 C   0  0
    2.2555  -11.7912    0.0000 C   0  0
    3.6448  -11.7443    0.0000 C   0  0
    4.4121  -12.0255    0.0000 C   0  0
    4.9167  -11.3826    0.0000 C   0  0
    4.4607  -10.7047    0.0000 N   0  0
    3.6752  -10.9277    0.0000 N   0  0
    4.8663   -9.9952    0.0000 C   0  0
    5.6835   -9.9917    0.0000 N   0  0
    4.4547   -9.2893    0.0000 S   0  0
    5.7311  -11.4128    0.0000 C   0  0
    6.9772  -10.7494    0.0000 C   0  0
    6.1625  -10.7227    0.0000 C   0  0
    7.3638  -11.4742    0.0000 C   0  0
    6.9282  -12.1647    0.0000 C   0  0
    6.1132  -12.1337    0.0000 C   0  0
    5.6807  -12.8230    0.0000 C   0  0
    6.0620  -13.5437    0.0000 C   0  0
    6.8803  -13.5708    0.0000 C   0  0
    7.3092  -12.8808    0.0000 C   0  0
    0.8412  -13.4276    0.0000 Cl  0  0
    2.2571  -14.2457    0.0000 Cl  0  0
  1  2  2  0
  2  3  1  0
  3  4  2  0
  4  5  1  0
  5  6  2  0
  6  1  1  0
  7  8  1  0
  8  9  1  0
  9 10  1  0
 10 11  1  0
 11  7  2  0
  5  7  1  0
 10 12  1  0
 12 13  1  0
 12 14  2  0
 15 20  2  0
 18 16  1  0
 16 17  2  0
 17 15  1  0
  9 15  1  0
 18 19  2  0
 19 20  1  0
 20 21  1  0
 21 22  2  0
 22 23  1  0
 23 24  2  0
 24 19  1  0
  2 25  1  0
  3 26  1  0
M  END
> <chembl_id>
CHEMBL2325108

$$$$

  SciTegic04091414352D

 35 39  0  0  0  0            999 V2000
   13.3556   -7.3047    0.0000 N   0  0
   13.3450   -6.4871    0.0000 C   0  0
   14.0477   -6.0691    0.0000 C   0  0
   14.7611   -6.4687    0.0000 N   0  0
   14.7717   -7.2863    0.0000 C   0  0
   14.0689   -7.7043    0.0000 C   0  0
   12.6528   -7.7227    0.0000 C   0  0
   12.6634   -8.5403    0.0000 O   0  0
   11.9395   -7.3231    0.0000 N   0  0
   15.4638   -6.0507    0.0000 C   0  0
    9.1284   -8.9950    0.0000 N   0  0
    8.4151   -8.5954    0.0000 C   0  0
    8.4045   -7.7778    0.0000 N   0  0
    9.1072   -7.3598    0.0000 C   0  0
    9.8206   -7.7594    0.0000 C   0  0
   10.5233   -7.3414    0.0000 C   0  0
   11.2367   -7.7411    0.0000 C   0  0
   11.2473   -8.5587    0.0000 C   0  0
   10.5446   -8.9766    0.0000 C   0  0
    9.8312   -8.5770    0.0000 C   0  0
   11.9607   -8.9583    0.0000 O   0  0
   11.5788  -11.0393    0.0000 O   0  0
   11.3161  -10.2650    0.0000 C   0  0
   11.9713   -9.7759    0.0000 C   0  0  2  0  0  0
   12.6390  -10.2479    0.0000 C   0  0
   12.3964  -11.0287    0.0000 C   0  0
    9.0966   -6.5422    0.0000 N   0  0
    8.3832   -6.1426    0.0000 C   0  0
    7.6805   -6.5606    0.0000 C   0  0
    6.9671   -6.1610    0.0000 C   0  0
    6.9565   -5.3434    0.0000 C   0  0
    7.6593   -4.9254    0.0000 C   0  0
    8.3726   -5.3250    0.0000 C   0  0
    6.2431   -4.9438    0.0000 F   0  0
    6.2644   -6.5790    0.0000 Cl  0  0
  1  2  1  0
  2  3  1  0
  3  4  1  0
  4  5  1  0
  5  6  1  0
  1  6  1  0
  7  8  2  0
  7  9  1  0
  1  7  1  0
  4 10  1  0
 11 12  1  0
 12 13  2  0
 13 14  1  0
 14 15  2  0
 15 16  1  0
 16 17  2  0
 17 18  1  0
 18 19  2  0
 19 20  1  0
 11 20  2  0
 15 20  1  0
 22 23  1  0
 23 24  1  0
 24 25  1  0
 25 26  1  0
 22 26  1  0
 24 21  1  1
 18 21  1  0
 28 29  1  0
 29 30  2  0
 30 31  1  0
 31 32  2  0
 32 33  1  0
 28 33  2  0
 31 34  1  0
 30 35  1  0
 27 28  1  0
 14 27  1  0
  9 17  1  0
M  END
> <chembl_id>
CHEMBL3092321

$$$$

  SciTegic10311316262D

 61 67  0  0  0  0            999 V2000
   -1.2631  -14.5588    0.0000 O   0  0
   -1.5421  -15.3292    0.0000 S   0  0
   -0.7363  -15.1811    0.0000 O   0  0
    0.0676  -15.9048    0.0000 O   0  0
   -0.6019  -16.3832    0.0000 C   0  0
   -1.3761  -16.1299    0.0000 C   0  0
   -1.8594  -16.7892    0.0000 N   0  3
   -1.3803  -17.4519    0.0000 O   0  0
   -0.6063  -17.2016    0.0000 N   0  0
   -2.2571  -14.9335    0.0000 C   0  0
   -2.2641  -14.1172    0.0000 C   0  0
   -2.9783  -13.7210    0.0000 C   0  0
   -3.6800  -14.1418    0.0000 C   0  0
   -3.6638  -14.9631    0.0000 C   0  0
   -2.9502  -15.3556    0.0000 C   0  0
    7.1222  -20.0253    0.0000 C   0  0
    7.1210  -20.8448    0.0000 C   0  0
    7.8291  -21.2538    0.0000 C   0  0
    8.5387  -20.8443    0.0000 C   0  0
    8.5359  -20.0217    0.0000 C   0  0
    7.8273  -19.6164    0.0000 C   0  0
    6.4151  -19.6125    0.0000 N   0  0
    6.4169  -18.7943    0.0000 C   0  0
    5.7131  -18.3860    0.0000 C   0  0
    5.0031  -18.7913    0.0000 N   0  0
    5.0013  -19.6094    0.0000 C   0  0
    5.7096  -20.0223    0.0000 C   0  0
    4.2969  -18.3802    0.0000 C   0  0
    7.8289  -22.0710    0.0000 O   0  0
    7.1211  -22.4794    0.0000 C   0  0
    9.2471  -21.2518    0.0000 N   0  0
    9.9542  -20.8421    0.0000 C   0  0
   10.6592  -21.2500    0.0000 N   0  0
   11.3658  -20.8410    0.0000 C   0  0
   11.3649  -20.0229    0.0000 C   0  0
   10.6516  -19.6156    0.0000 C   0  0
    9.9479  -20.0270    0.0000 N   0  0
   12.0714  -19.6123    0.0000 Cl  0  0
   10.6474  -18.7985    0.0000 O   0  0
   11.3530  -18.3863    0.0000 C   0  0
   12.0633  -18.7936    0.0000 C   0  0
   12.7685  -18.3821    0.0000 C   0  0
   12.7647  -17.5640    0.0000 C   0  0
   12.0500  -17.1592    0.0000 C   0  0
   11.3478  -17.5731    0.0000 C   0  0
   13.4781  -18.7874    0.0000 N   0  0
   14.1839  -18.3756    0.0000 C   0  0
   14.8935  -18.7809    0.0000 C   0  0
   14.1801  -17.5584    0.0000 O   0  0
   15.5993  -18.3690    0.0000 C   0  0
    4.2998  -17.5630    0.0000 C   0  0
    3.5935  -17.1519    0.0000 N   0  0
    5.0089  -17.1569    0.0000 O   0  0
    3.6014  -16.3374    0.0000 C   0  0
    2.8992  -15.9264    0.0000 C   0  0
    2.1877  -16.3290    0.0000 N   0  0
    2.1828  -17.1471    0.0000 C   0  0
    2.8895  -17.5626    0.0000 C   0  0
    1.4830  -15.9152    0.0000 C   0  0
    0.7723  -16.3186    0.0000 C   0  0
   -2.6766  -16.7866    0.0000 O   0  5
  2  1  2  0
  3  2  2  0
  4  5  1  0
  5  6  1  0
  6  7  2  0
  7  8  1  0
  8  9  1  0
  9  5  2  0
  6  2  1  0
  2 10  1  0
 10 11  2  0
 11 12  1  0
 12 13  2  0
 13 14  1  0
 14 15  2  0
 15 10  1  0
 16 17  2  0
 17 18  1  0
 18 19  2  0
 19 20  1  0
 20 21  2  0
 21 16  1  0
 22 23  1  0
 22 27  1  0
 23 24  1  0
 24 25  1  0
 25 26  1  0
 26 27  1  0
 16 22  1  0
 25 28  1  0
 18 29  1  0
 29 30  1  0
 19 31  1  0
 31 32  1  0
 32 33  2  0
 33 34  1  0
 34 35  2  0
 35 36  1  0
 36 37  2  0
 37 32  1  0
 35 38  1  0
 36 39  1  0
 39 40  1  0
 40 41  2  0
 41 42  1  0
 42 43  2  0
 43 44  1  0
 44 45  2  0
 45 40  1  0
 42 46  1  0
 46 47  1  0
 47 48  1  0
 47 49  2  0
 48 50  2  0
 28 51  1  0
 51 52  1  0
 51 53  2  0
 52 54  1  0
 52 58  1  0
 54 55  1  0
 55 56  1  0
 56 57  1  0
 57 58  1  0
 56 59  1  0
 59 60  1  0
 60  4  1  0
  7 61  1  0
M  CHG  2   7   1  61  -1
M  END
> <chembl_id>
CHEMBL2381516

$$$$

  SciTegic12091611192D

 28 31  0  0  0  0            999 V2000
   -3.6217    1.4865    0.0000 N   0  0
   -7.5133    0.6990    0.0000 C   0  0
   -6.2219    1.4621    0.0000 N   0  0
   -4.9153    0.7255    0.0000 C   0  0
   -4.9001   -0.7745    0.0000 C   0  0
   -6.1914   -1.5377    0.0000 C   0  0
   -7.4980   -0.8010    0.0000 N   0  0
   -8.8205    1.4361    0.0000 N   0  0
   -8.8383    2.9360    0.0000 C   0  0
  -10.1461    3.6707    0.0000 C   0  0
  -11.4362    2.9055    0.0000 C   0  0
  -11.4185    1.4056    0.0000 C   0  0
  -10.1108    0.6709    0.0000 C   0  0
   -1.0028   -1.5132    0.0000 C   0  0
    0.2917   -0.7475    0.0000 C   0  0
    0.2917    0.7475    0.0000 C   0  0
   -1.0028    1.5132    0.0000 C   0  0
   -2.3155    0.7475    0.0000 C   0  0
   -2.3155   -0.7475    0.0000 N   0  0
    2.5889    0.0182    0.0000 C   0  0
    1.7138   -1.2033    0.0000 N   0  0
    1.7138    1.2033    0.0000 N   0  0
    2.1812    2.6271    0.0000 C   0  0
    3.3556    2.8737    0.0000 C   0  0
    1.3808    3.5211    0.0000 C   0  0
  -12.7462    3.6378    0.0000 C   0  0
  -13.7774    3.0242    0.0000 O   0  0
  -12.7624    4.8377    0.0000 N   0  0
  2  3  1  0
  3  4  2  0
  4  5  1  0
  5  6  2  0
  6  7  1  0
  2  7  2  0
  8  9  1  0
  9 10  1  0
 10 11  1  0
 11 12  1  0
 12 13  1  0
  8 13  1  0
  2  8  1  0
  1  4  1  0
 14 15  1  0
 15 16  2  0
 16 17  1  0
 17 18  2  0
 18 19  1  0
 14 19  2  0
 20 21  2  0
 20 22  1  0
 15 21  1  0
 16 22  1  0
  1 18  1  0
 22 23  1  0
 23 24  1  0
 23 25  1  0
 11 26  1  0
 26 27  2  0
 26 28  1  0
M  END
> <chembl_id>
CHEMBL3735410

$$$$

  SciTegic12091614152D

 34 36  0  0  0  0            999 V2000
    1.2990   -0.7500    0.0000 C   0  0
    1.2990    0.7500    0.0000 C   0  0
    0.0000    1.5000    0.0000 C   0  0
   -1.2990    0.7500    0.0000 C   0  0
   -1.2990   -0.7500    0.0000 C   0  0
    0.0000   -1.5000    0.0000 C   0  0
    2.5973   -1.5031    0.0000 N   0  0
   -0.0031    3.0008    0.0000 N   0  0
    1.2883   -5.2495    0.0000 C   0  0
    1.2935   -3.7495    0.0000 N   0  0
    2.5951   -3.0039    0.0000 C   0  0
    3.8915   -3.7585    0.0000 C   0  0
    3.8864   -5.2585    0.0000 C   0  0
    2.5847   -6.0040    0.0000 N   0  0
   -0.0125   -5.9981    0.0000 N   0  0
   -0.0155   -7.4989    0.0000 N   0  0
   -1.3163   -8.2475    0.0000 C   0  0
   -1.3194   -9.7484    0.0000 C   0  0
   -0.0203  -10.4984    0.0000 C   0  0
   -0.0203  -11.9984    0.0000 C   0  0
   -1.3193  -12.7484    0.0000 C   0  0
   -2.6184  -11.9985    0.0000 C   0  0
   -2.6184  -10.4985    0.0000 C   0  0
    4.9329   -3.1621    0.0000 Cl  0  0
   -1.3039    3.7494    0.0000 C   0  0
   -2.3421    3.1476    0.0000 O   0  0
   -1.3070    5.2502    0.0000 C   0  0
   -2.6078    5.9988    0.0000 C   0  0
   -2.6109    7.4996    0.0000 C   0  0
   -3.9118    8.2481    0.0000 N   0  0
   -3.9142    9.4481    0.0000 C   0  0
   -4.9499    7.6463    0.0000 C   0  0
   -1.3193  -13.9484    0.0000 F   0  0
   -3.6577   -9.8985    0.0000 F   0  0
  1  2  1  0
  2  3  2  0
  3  4  1  0
  4  5  2  0
  5  6  1  0
  1  6  2  0
  1  7  1  0
  3  8  1  0
  9 10  1  0
 10 11  2  0
 11 12  1  0
 12 13  2  0
 13 14  1  0
  9 14  2  0
 15 16  1  0
 17 18  1  0
 18 19  1  0
 19 20  2  0
 20 21  1  0
 21 22  2  0
 22 23  1  0
 18 23  2  0
 16 17  2  0
  9 15  1  0
 12 24  1  0
  7 11  1  0
  8 25  1  0
 25 26  2  0
 25 27  1  0
 27 28  2  0
 28 29  1  0
 29 30  1  0
 30 31  1  0
 30 32  1  0
 21 33  1  0
 23 34  1  0
M  END
> <chembl_id>
CHEMBL3742128

$$$$

  SciTegic12171313052D

 35 39  0  0  0  0            999 V2000
   14.3820  -10.4625    0.0000 C   0  0
   14.3808  -11.2820    0.0000 C   0  0
   15.0889  -11.6910    0.0000 C   0  0
   15.7985  -11.2815    0.0000 C   0  0
   15.7957  -10.4589    0.0000 C   0  0
   15.0871  -10.0536    0.0000 C   0  0
   15.0846   -9.2364    0.0000 N   0  0
   15.7911   -8.8257    0.0000 C   0  0
   16.5015   -9.2366    0.0000 N   0  0
   16.4916   -7.6022    0.0000 C   0  0
   15.7885   -8.0146    0.0000 N   0  0
   17.2055   -8.0086    0.0000 C   0  0
   17.2063   -8.8283    0.0000 C   0  0
   17.9127   -9.2352    0.0000 N   0  0
   18.6228   -8.8269    0.0000 C   0  0
   18.6220   -8.0072    0.0000 C   0  0
   17.9111   -7.5957    0.0000 N   0  0
   17.9138  -10.0497    0.0000 C   0  0
   17.2043  -10.4574    0.0000 C   0  0
   17.2036  -11.2738    0.0000 C   0  0
   17.9117  -11.6836    0.0000 C   0  0
   18.6219  -11.2709    0.0000 C   0  0
   18.6191  -10.4558    0.0000 C   0  0
   19.3304   -9.2358    0.0000 O   0  0
   19.3309  -11.6773    0.0000 N   0  0
   19.3334  -12.4945    0.0000 C   0  0
   20.0424  -12.9009    0.0000 O   0  0
   18.6270  -12.9052    0.0000 C   0  0
   17.9180  -12.4988    0.0000 C   0  0
   15.0892  -12.5032    0.0000 N   0  0
   14.3796  -12.9104    0.0000 C   0  0
   14.3775  -13.7241    0.0000 C   0  0
   15.0833  -14.1367    0.0000 O   0  0
   15.7929  -13.7295    0.0000 C   0  0
   15.7967  -12.9097    0.0000 C   0  0
  1  2  2  0
  2  3  1  0
  3  4  2  0
  4  5  1  0
  5  6  2  0
  6  1  1  0
  6  7  1  0
  7  8  1  0
  8  9  2  0
  9 13  1  0
 12 10  1  0
 10 11  2  0
 11  8  1  0
 12 13  2  0
 12 17  1  0
 13 14  1  0
 14 15  1  0
 15 16  1  0
 16 17  2  0
 18 19  2  0
 19 20  1  0
 20 21  2  0
 21 22  1  0
 22 23  2  0
 23 18  1  0
 14 18  1  0
 15 24  2  0
 22 25  1  0
 25 26  1  0
 26 27  2  0
 26 28  1  0
 28 29  2  0
 30 31  1  0
 30 35  1  0
 31 32  1  0
 32 33  1  0
 33 34  1  0
 34 35  1  0
  3 30  1  0
M  END
> <chembl_id>
CHEMBL2437460

$$$$

  SciTegic05221516342D

 44 49  0  0  0  0            999 V2000
   24.4565  -17.0330    0.0000 C   0  0
   24.4554  -17.8526    0.0000 C   0  0
   25.1634  -18.2615    0.0000 N   0  0
   25.8731  -17.8521    0.0000 C   0  0
   25.8703  -17.0294    0.0000 N   0  0
   25.1617  -16.6242    0.0000 C   0  0
   25.1597  -15.8071    0.0000 C   0  0
   25.8194  -15.3247    0.0000 C   0  0
   25.5645  -14.5483    0.0000 N   0  0
   24.4972  -15.3287    0.0000 C   0  0
   24.7440  -14.5476    0.0000 N   0  0
   24.1940  -13.9466    0.0000 C   0  0
   23.3942  -14.1210    0.0000 C   0  0
   23.1474  -14.9022    0.0000 C   0  0
   23.7004  -15.5088    0.0000 C   0  0
   23.7487  -16.6246    0.0000 Cl  0  0
   26.5815  -18.2596    0.0000 N   0  0
   27.2885  -17.8499    0.0000 C   0  0
   27.9935  -18.2578    0.0000 C   0  0
   28.7001  -17.8488    0.0000 C   0  0
   28.6993  -17.0307    0.0000 C   0  0
   27.9860  -16.6234    0.0000 C   0  0
   27.2823  -17.0348    0.0000 C   0  0
   27.9936  -19.0750    0.0000 O   0  0
   27.2860  -19.4837    0.0000 C   0  0
   27.9818  -15.8062    0.0000 N   0  0
   27.2720  -15.4012    0.0000 C   0  0
   27.2678  -14.5840    0.0000 C   0  0
   26.5664  -15.8134    0.0000 O   0  0
   27.9735  -14.1719    0.0000 C   0  0
   29.4058  -16.6201    0.0000 N   0  0
   30.1129  -17.0322    0.0000 C   0  0
   30.8174  -16.6250    0.0000 C   0  0
   30.8192  -15.8075    0.0000 N   0  0
   30.1105  -15.3988    0.0000 C   0  0
   29.3999  -15.8076    0.0000 C   0  0
   31.5273  -15.3995    0.0000 C   0  0
   31.5280  -14.5823    0.0000 O   0  0
   32.2346  -15.8087    0.0000 N   0  0
   32.2309  -16.6253    0.0000 C   0  0
   32.9342  -17.0344    0.0000 C   0  0
   33.6446  -16.6299    0.0000 N   0  0
   33.6473  -15.8118    0.0000 C   0  0
   32.9395  -15.3981    0.0000 C   0  0
  1  2  2  0
  2  3  1  0
  3  4  2  0
  4  5  1  0
  5  6  2  0
  6  1  1  0
  7  8  1  0
  8  9  2  0
  9 11  1  0
 10  7  2  0
  6  7  1  0
 10 11  1  0
 10 15  1  0
 11 12  1  0
 12 13  2  0
 13 14  1  0
 14 15  2  0
  1 16  1  0
  4 17  1  0
 17 18  1  0
 18 19  2  0
 19 20  1  0
 20 21  2  0
 21 22  1  0
 22 23  2  0
 23 18  1  0
 19 24  1  0
 24 25  1  0
 22 26  1  0
 26 27  1  0
 27 28  1  0
 27 29  2  0
 28 30  2  0
 21 31  1  0
 31 32  1  0
 31 36  1  0
 32 33  1  0
 33 34  1  0
 34 35  1  0
 35 36  1  0
 34 37  1  0
 37 38  2  0
 37 39  1  0
 39 40  1  0
 39 44  1  0
 40 41  1  0
 41 42  1  0
 42 43  1  0
 43 44  1  0
M  END
> <chembl_id>
CHEMBL3353401

$$$$

  SciTegic09261414462D

 42 46  0  0  0  0            999 V2000
   21.3570  -15.1964    0.0000 C   0  0
   21.3558  -16.0160    0.0000 C   0  0
   22.0639  -16.4249    0.0000 C   0  0
   22.7736  -16.0155    0.0000 C   0  0
   22.7707  -15.1928    0.0000 C   0  0
   22.0621  -14.7876    0.0000 C   0  0
   20.6513  -14.7882    0.0000 N   0  0
   20.6524  -13.9699    0.0000 C   0  0
   19.9454  -13.5615    0.0000 C   0  0
   19.2368  -13.9703    0.0000 N   0  0
   19.2397  -14.7918    0.0000 C   0  0
   19.9472  -15.1964    0.0000 C   0  0
   23.4819  -16.4230    0.0000 N   0  0
   24.1890  -16.0133    0.0000 C   0  0
   24.8940  -16.4212    0.0000 N   0  0
   25.6006  -16.0122    0.0000 C   0  0
   25.5997  -15.1941    0.0000 C   0  0
   24.8864  -14.7868    0.0000 C   0  0
   24.1827  -15.1981    0.0000 N   0  0
   24.8822  -13.9696    0.0000 O   0  0
   25.5879  -13.5574    0.0000 C   0  0
   26.2946  -13.9627    0.0000 C   0  0
   26.9997  -13.5512    0.0000 C   0  0
   26.9960  -12.7331    0.0000 C   0  0
   26.2812  -12.3283    0.0000 C   0  0
   25.5790  -12.7422    0.0000 C   0  0
   27.7093  -13.9565    0.0000 N   0  0
   28.4151  -13.5447    0.0000 C   0  0
   29.1247  -13.9500    0.0000 C   0  0
   28.4113  -12.7275    0.0000 O   0  0
   26.3063  -14.7834    0.0000 Cl  0  0
   22.0637  -17.2421    0.0000 O   0  0
   21.3559  -17.6505    0.0000 C   0  0
   18.5285  -13.5629    0.0000 C   0  0
   29.8305  -13.5381    0.0000 C   0  0
   30.5401  -13.9434    0.0000 N   0  0
   30.5389  -14.7598    0.0000 C   0  0
   31.2444  -15.1650    0.0000 C   0  0
   31.9527  -14.7566    0.0000 N   0  0
   31.9509  -13.9385    0.0000 C   0  0
   31.2408  -13.5287    0.0000 C   0  0
   32.6607  -15.1646    0.0000 C   0  0
  1  2  2  0
  2  3  1  0
  3  4  2  0
  4  5  1  0
  5  6  2  0
  6  1  1  0
  7  8  1  0
  8  9  1  0
  9 10  1  0
 10 11  1  0
 11 12  1  0
 12  7  1  0
  1  7  1  0
  4 13  1  0
 13 14  1  0
 14 15  2  0
 15 16  1  0
 16 17  2  0
 17 18  1  0
 18 19  2  0
 19 14  1  0
 18 20  1  0
 20 21  1  0
 21 22  2  0
 22 23  1  0
 23 24  2  0
 24 25  1  0
 25 26  2  0
 26 21  1  0
 23 27  1  0
 27 28  1  0
 28 29  1  0
 28 30  2  0
 17 31  1  0
  3 32  1  0
 32 33  1  0
 10 34  1  0
 29 35  1  0
 35 36  1  0
 36 37  1  0
 36 41  1  0
 37 38  1  0
 38 39  1  0
 39 40  1  0
 40 41  1  0
 39 42  1  0
M  END
> <chembl_id>
CHEMBL3237934

$$$$

  SciTegic01061414252D

 31 34  0  0  0  0            999 V2000
   10.9637   -9.4079    0.0000 C   0  0
   10.2492   -8.9953    0.0000 C   0  0
    9.5348   -9.4079    0.0000 C   0  0
    8.8203   -8.9953    0.0000 C   0  0
   11.6781   -8.9953    0.0000 O   0  0
    8.1059   -9.4079    0.0000 N   0  0
    8.1059  -10.2329    0.0000 C   0  0
    7.3914   -8.9953    0.0000 C   0  0
   13.8215  -11.8828    0.0000 N   0  0
   14.5359  -11.4703    0.0000 C   0  0
   14.5359  -10.6453    0.0000 N   0  0
   13.8215  -10.2329    0.0000 C   0  0
   13.1070  -10.6453    0.0000 C   0  0
   12.3926  -10.2329    0.0000 C   0  0
   11.6781  -10.6453    0.0000 C   0  0
   11.6781  -11.4703    0.0000 C   0  0
   12.3926  -11.8828    0.0000 C   0  0
   13.1070  -11.4703    0.0000 C   0  0
   10.9637  -11.8828    0.0000 O   0  0
   10.9637  -10.2329    0.0000 N   0  0
   10.2492  -10.6453    0.0000 C   0  0
   10.2492  -11.4703    0.0000 C   0  0
   13.8215   -9.4079    0.0000 N   0  0
   14.5359   -8.9953    0.0000 C   0  0
   14.5359   -8.1703    0.0000 C   0  0
   15.2504   -7.7579    0.0000 C   0  0
   15.9648   -8.1703    0.0000 C   0  0
   15.9648   -8.9953    0.0000 C   0  0
   15.2504   -9.4079    0.0000 C   0  0
   16.6793   -7.7579    0.0000 F   0  0
   15.2504   -6.9329    0.0000 Cl  0  0
  1  2  1  0
  2  3  2  0
  3  4  1  0
  1  5  2  0
  6  7  1  0
  6  8  1  0
  4  6  1  0
  9 10  1  0
 10 11  2  0
 11 12  1  0
 12 13  2  0
 13 14  1  0
 14 15  2  0
 15 16  1  0
 16 17  2  0
 17 18  1  0
  9 18  2  0
 13 18  1  0
 20 21  1  0
 21 22  1  0
 19 22  1  0
 15 20  1  0
 16 19  1  0
 24 25  1  0
 25 26  2  0
 26 27  1  0
 27 28  2  0
 28 29  1  0
 24 29  2  0
 27 30  1  0
 26 31  1  0
 23 24  1  0
 12 23  1  0
  1 20  1  0
M  END
> <chembl_id>
CHEMBL2441565

$$$$

  SciTegic12091611192D

 28 31  0  0  0  0            999 V2000
   -3.6217    1.4865    0.0000 N   0  0
   -7.5133    0.6990    0.0000 C   0  0
   -6.2219    1.4621    0.0000 N   0  0
   -4.9153    0.7255    0.0000 C   0  0
   -4.9001   -0.7745    0.0000 C   0  0
   -6.1914   -1.5377    0.0000 C   0  0
   -7.4980   -0.8010    0.0000 N   0  0
   -8.8205    1.4361    0.0000 N   0  0
   -8.8383    2.9360    0.0000 C   0  0
  -10.1461    3.6707    0.0000 C   0  0
  -11.4362    2.9055    0.0000 C   0  0
  -11.4185    1.4056    0.0000 C   0  0
  -10.1108    0.6709    0.0000 C   0  0
  -12.7462    3.6378    0.0000 O   0  0
  -13.7774    3.0242    0.0000 C   0  0
   -1.0028   -1.5132    0.0000 C   0  0
    0.2917   -0.7475    0.0000 C   0  0
    0.2917    0.7475    0.0000 C   0  0
   -1.0028    1.5132    0.0000 C   0  0
   -2.3155    0.7475    0.0000 C   0  0
   -2.3155   -0.7475    0.0000 N   0  0
    2.5889    0.0182    0.0000 C   0  0
    1.7138   -1.2033    0.0000 N   0  0
    1.7138    1.2033    0.0000 N   0  0
    3.7889    0.0269    0.0000 C   0  0
    2.1812    2.6271    0.0000 C   0  0
    3.3556    2.8737    0.0000 C   0  0
    1.3808    3.5211    0.0000 C   0  0
  2  3  1  0
  3  4  2  0
  4  5  1  0
  5  6  2  0
  6  7  1  0
  2  7  2  0
  8  9  1  0
  9 10  1  0
 10 11  1  0
 11 12  1  0
 12 13  1  0
  8 13  1  0
 14 15  1  0
 11 14  1  0
  2  8  1  0
  1  4  1  0
 16 17  1  0
 17 18  2  0
 18 19  1  0
 19 20  2  0
 20 21  1  0
 16 21  2  0
 22 23  2  0
 22 24  1  0
 17 23  1  0
 18 24  1  0
  1 20  1  0
 22 25  1  0
 24 26  1  0
 26 27  1  0
 26 28  1  0
M  END
> <chembl_id>
CHEMBL3736508

$$$$

  SciTegic09261414462D

 30 33  0  0  0  0            999 V2000
    7.9240  -16.7427    0.0000 N   0  0
    8.6337  -16.3333    0.0000 C   0  0
    8.6308  -15.5106    0.0000 N   0  0
    7.9222  -15.1054    0.0000 C   0  0
    7.2160  -16.3338    0.0000 C   0  0
    7.2172  -15.5172    0.0000 C   0  0
    6.4410  -15.2637    0.0000 C   0  0
    5.9600  -15.9236    0.0000 C   0  0
    6.4390  -16.5848    0.0000 S   0  0
    7.9185  -14.2882    0.0000 N   0  0
    8.6243  -13.8763    0.0000 C   0  0
    9.3317  -14.2864    0.0000 C   0  0
   10.0370  -13.8753    0.0000 C   0  0
   10.0337  -13.0572    0.0000 C   0  0
    9.3191  -12.6521    0.0000 C   0  0
    8.6167  -13.0656    0.0000 C   0  0
    5.1428  -15.9224    0.0000 N   0  0
    4.7352  -15.2141    0.0000 C   0  0
    3.9180  -15.2129    0.0000 C   0  0
    5.1449  -14.5070    0.0000 O   0  0
   10.7390  -12.6444    0.0000 F   0  0
   10.7464  -14.2810    0.0000 Cl  0  0
    3.5105  -14.5046    0.0000 C   0  0
    2.6933  -14.5035    0.0000 C   0  0
    2.2857  -13.7952    0.0000 N   0  0
    2.6957  -13.0896    0.0000 C   0  0
    2.2916  -12.3835    0.0000 C   0  0
    1.4741  -12.3780    0.0000 C   0  0
    1.0623  -13.0850    0.0000 C   0  0
    1.4680  -13.7974    0.0000 C   0  0
  5  1  1  0
  1  2  2  0
  2  3  1  0
  3  4  2  0
  4  6  1  0
  5  6  2  0
  6  7  1  0
  7  8  2  0
  8  9  1  0
  9  5  1  0
  4 10  1  0
 10 11  1  0
 11 12  2  0
 12 13  1  0
 13 14  2  0
 14 15  1  0
 15 16  2  0
 16 11  1  0
  8 17  1  0
 17 18  1  0
 18 19  1  0
 18 20  2  0
 14 21  1  0
 13 22  1  0
 19 23  2  0
 23 24  1  0
 24 25  1  0
 25 26  1  0
 25 30  1  0
 26 27  1  0
 27 28  1  0
 28 29  1  0
 29 30  1  0
M  END
> <chembl_id>
CHEMBL3233784

$$$$

  SciTegic12091614082D

 39 43  0  0  0  0            999 V2000
   -1.2964    1.4973    0.0000 C   0  0
   -2.6111    0.7486    0.0000 C   0  0
   -2.6111   -0.7486    0.0000 C   0  0
   -1.2964   -1.4973    0.0000 C   0  0
    0.0000   -0.7486    0.0000 C   0  0
    1.2964   -1.4973    0.0000 C   0  0
    2.5929   -0.7486    0.0000 C   0  0
    2.5929    0.7486    0.0000 C   0  0
    1.2964    1.4973    0.0000 C   0  0
    0.0000    0.7486    0.0000 C   0  0
   -1.2907    2.9981    0.0000 C   0  0
   -0.2489    3.5938    0.0000 O   0  0
   -2.5870    3.7544    0.0000 N   0  0
   -2.5812    5.2552    0.0000 C   0  0
   -3.8758    6.0130    0.0000 C   0  0
   -2.5634    8.2553    0.0000 C   0  0
   -1.2777    5.9976    0.0000 C   0  0
   -3.8669    7.5130    0.0000 C   0  0
   -1.2688    7.4976    0.0000 C   0  0
    3.8942   -1.4964    0.0000 O   0  0
    7.7910   -0.7351    0.0000 C   0  0
    6.4946   -1.4896    0.0000 N   0  0
    5.1929   -0.7441    0.0000 C   0  0
    5.1877    0.7559    0.0000 C   0  0
    6.4842    1.5104    0.0000 C   0  0
    7.7858    0.7649    0.0000 N   0  0
    9.0949   -1.4783    0.0000 N   0  0
   10.3910   -0.7216    0.0000 C   0  0
   11.6952   -1.4625    0.0000 C   0  0
   12.9890   -0.7035    0.0000 C   0  0
   12.9787    0.7965    0.0000 C   0  0
   11.6745    1.5374    0.0000 C   0  0
   10.3806    0.7785    0.0000 C   0  0
   14.2955   -1.4422    0.0000 C   0  0
   15.5889   -0.6810    0.0000 S   0  0
   16.6335   -1.2716    0.0000 O   0  0
   15.5785    0.5190    0.0000 O   0  0
   16.6228   -0.0719    0.0000 C   0  0
   -0.2261    8.0914    0.0000 F   0  0
  1  2  1  0
  2  3  2  0
  3  4  1  0
  4  5  2  0
  5  6  1  0
  6  7  2  0
  7  8  1  0
  8  9  2  0
  9 10  1  0
  1 10  2  0
  5 10  1  0
  1 11  1  0
 11 12  2  0
 11 13  1  0
 14 15  1  0
 14 17  2  0
 15 18  2  0
 16 18  1  0
 16 19  2  0
 17 19  1  0
 13 14  1  0
 21 22  1  0
 22 23  2  0
 23 24  1  0
 24 25  2  0
 25 26  1  0
 21 26  2  0
 20 23  1  0
 28 29  1  0
 29 30  2  0
 30 31  1  0
 31 32  2  0
 32 33  1  0
 28 33  2  0
 35 36  2  0
 35 37  2  0
 35 38  1  0
 34 35  1  0
 30 34  1  0
 27 28  1  0
 21 27  1  0
  7 20  1  0
 19 39  1  0
M  END
> <chembl_id>
CHEMBL3740487

$$$$

  SciTegic04301217312D

 26 28  0  0  0  0            999 V2000
   11.5496    1.0585    0.0000 C   0  0
   11.5484    0.2310    0.0000 N   0  0
   12.2633   -0.1819    0.0000 C   0  0
   12.9799    0.2315    0.0000 N   0  0
   12.9770    1.0621    0.0000 C   0  0
   12.2615    1.4712    0.0000 N   0  0
   13.6869    1.4760    0.0000 C   0  0
   14.4033    1.0645    0.0000 C   0  0
   15.1158    1.4790    0.0000 C   0  0
   15.1131    2.3049    0.0000 C   0  0
   14.3920    2.7146    0.0000 C   0  0
   13.6824    2.2977    0.0000 C   0  0
   15.8255    2.7211    0.0000 Cl  0  0
   12.2631   -1.0070    0.0000 S   0  0
   11.5485   -1.4193    0.0000 C   0  0
   11.5482   -2.2444    0.0000 C   0  0
   10.8337   -2.6567    0.0000 O   0  0
   12.2627   -2.6571    0.0000 N   0  0
   12.9774   -2.2447    0.0000 C   0  0
   13.6882   -2.6600    0.0000 C   0  0
   14.4024   -2.2483    0.0000 C   0  0
   14.4031   -1.4223    0.0000 C   0  0
   13.6836   -1.0098    0.0000 C   0  0
   12.9724   -1.4238    0.0000 C   0  0
   15.1172   -1.0091    0.0000 Cl  0  0
   10.8350    1.4708    0.0000 O   0  0
  6  1  1  0
 10 13  1  0
  1  2  2  0
  3 14  1  0
  3  4  2  0
 14 15  1  0
  7  8  2  0
 15 16  1  0
 16 17  2  0
  8  9  1  0
 16 18  1  0
  4  5  1  0
 18 19  1  0
  9 10  2  0
 19 20  2  0
  2  3  1  0
 20 21  1  0
 10 11  1  0
 21 22  2  0
  5  6  2  0
 22 23  1  0
 11 12  2  0
 23 24  2  0
 24 19  1  0
 12  7  1  0
 22 25  1  0
  5  7  1  0
  1 26  1  0
M  END
> <chembl_id>
CHEMBL1946844

$$$$

  SciTegic05221516342D

 38 42  0  0  0  0            999 V2000
   26.2847  -16.2791    0.0000 C   0  0
   25.5756  -16.6877    0.0000 C   0  0
   25.5756  -17.5049    0.0000 C   0  0
   24.8706  -17.9135    0.0000 C   0  0
   26.2847  -15.4619    0.0000 O   0  0
   26.9896  -16.6877    0.0000 N   0  0
   24.1615  -17.5049    0.0000 N   0  0
   23.4525  -17.9135    0.0000 C   0  0
   22.7475  -17.5049    0.0000 C   0  0
   22.7475  -16.6877    0.0000 C   0  0
   23.4525  -16.2791    0.0000 C   0  0
   24.1615  -16.6877    0.0000 C   0  0
   24.8706  -16.2791    0.0000 F   0  0
   29.8219  -15.0533    0.0000 N   0  0
   30.5310  -15.4619    0.0000 C   0  0
   30.5310  -16.2791    0.0000 N   0  0
   29.8219  -16.6877    0.0000 C   0  0
   29.1169  -16.2791    0.0000 C   0  0
   28.4078  -16.6877    0.0000 C   0  0
   27.6987  -16.2791    0.0000 C   0  0
   27.6987  -15.4619    0.0000 C   0  0
   28.4078  -15.0533    0.0000 C   0  0
   29.1169  -15.4619    0.0000 C   0  0
   26.9896  -15.0533    0.0000 O   0  0
   27.3982  -12.9788    0.0000 O   0  0
   27.6529  -13.7560    0.0000 C   0  0
   26.9896  -14.2362    0.0000 C   0  0  2  0  0  0
   26.3305  -13.7560    0.0000 C   0  0
   26.5810  -12.9788    0.0000 C   0  0
   29.8219  -17.5049    0.0000 N   0  0
   30.5310  -17.9135    0.0000 C   0  0
   31.2359  -17.5049    0.0000 C   0  0
   31.9450  -17.9135    0.0000 C   0  0
   31.9450  -18.7307    0.0000 C   0  0
   31.2359  -19.1393    0.0000 C   0  0
   30.5310  -18.7307    0.0000 C   0  0
   32.6541  -19.1393    0.0000 F   0  0
   32.6541  -17.5049    0.0000 Cl  0  0
  1  2  1  0
  2  3  2  0
  3  4  1  0
  1  5  2  0
  1  6  1  0
  7  8  1  0
  8  9  1  0
  9 10  1  0
 10 11  1  0
 11 12  1  0
  7 12  1  0
  4  7  1  0
  2 13  1  0
 14 15  1  0
 15 16  2  0
 16 17  1  0
 17 18  2  0
 18 19  1  0
 19 20  2  0
 20 21  1  0
 21 22  2  0
 22 23  1  0
 14 23  2  0
 18 23  1  0
 25 26  1  0
 26 27  1  0
 27 28  1  0
 28 29  1  0
 25 29  1  0
 27 24  1  1
 21 24  1  0
 31 32  1  0
 32 33  2  0
 33 34  1  0
 34 35  2  0
 35 36  1  0
 31 36  2  0
 34 37  1  0
 33 38  1  0
 30 31  1  0
 17 30  1  0
  6 20  1  0
M  END
> <chembl_id>
CHEMBL3357645

$$$$

  SciTegic12131613492D

 27 31  0  0  0  0            999 V2000
    0.8955    2.0810    0.0000 C   0  0
    1.7138    1.2033    0.0000 C   0  0
    2.8908    1.4370    0.0000 C   0  0
   -1.0028    1.5132    0.0000 N   0  0
   -2.3155    0.7475    0.0000 C   0  0
   -2.3155   -0.7475    0.0000 N   0  0
   -1.0028   -1.5132    0.0000 C   0  0
    0.2917    0.7475    0.0000 C   0  0
    0.2917   -0.7475    0.0000 C   0  0
    1.7138   -1.2033    0.0000 C   0  0
    2.5889    0.0182    0.0000 O   0  0
   -3.6168    1.4950    0.0000 C   0  0
   -4.9669    0.8708    0.0000 N   0  0
   -5.9732    1.9832    0.0000 N   0  0
   -5.2262    3.2840    0.0000 C   0  0
   -3.7582    2.9755    0.0000 C   0  0
   -0.9971   -3.0138    0.0000 N   0  0
   -2.2935   -3.7700    0.0000 C   0  0
   -4.6304   -4.2656    0.0000 N   0  0
   -3.6203   -3.1531    0.0000 N   0  0
   -3.8857   -5.5600    0.0000 C   0  0
   -2.4241   -5.2456    0.0000 C   0  0
   -1.4032   -6.3500    0.0000 C   0  0
   -1.8757   -7.7944    0.0000 C   0  0
   -3.3373   -8.1089    0.0000 C   0  0
   -4.3620   -6.9866    0.0000 C   0  0
   -5.2067   -0.3050    0.0000 C   0  0
  2  1  1  0
  3  2  1  0
  8  4  1  0
  4  5  2  0
  5  6  1  0
  6  7  2  0
  7  9  1  0
  8  9  2  0
  9 10  1  0
 10 11  1  0
 11  2  1  0
  2  8  1  0
  5 12  1  0
 12 13  1  0
 13 14  1  0
 14 15  2  0
 15 16  1  0
 16 12  2  0
  7 17  1  0
 17 18  1  0
 18 22  1  0
 21 19  1  0
 19 20  1  0
 20 18  2  0
 21 22  2  0
 22 23  1  0
 23 24  2  0
 24 25  1  0
 25 26  2  0
 26 21  1  0
 13 27  1  0
M  END
> <chembl_id>
CHEMBL3759096

$$$$

  SciTegic12211612232D

 25 29  0  0  0  0            999 V2000
    1.7138   -1.2033    0.0000 N   0  0
    2.5889    0.0182    0.0000 N   0  0
    1.7138    1.2033    0.0000 N   0  0
    0.2917    0.7475    0.0000 C   0  0
    0.2917   -0.7475    0.0000 C   0  0
   -1.0028    1.5132    0.0000 C   0  0
   -2.3155    0.7475    0.0000 C   0  0
   -2.3155   -0.7475    0.0000 C   0  0
   -1.0028   -1.5132    0.0000 C   0  0
    2.1852   -2.6281    0.0000 C   0  0
    1.2781   -3.8165    0.0000 C   0  0
    1.8565   -5.2005    0.0000 C   0  0
    3.3443   -5.3916    0.0000 C   0  0
    4.2537   -4.1987    0.0000 C   0  0
    3.6753   -2.8147    0.0000 C   0  0
    0.0879   -3.6632    0.0000 C   0  0
    3.1413   -8.0438    0.0000 S   0  0
    3.9230   -6.7763    0.0000 C   0  0
    5.3512   -7.0908    0.0000 N   0  0
    5.4957   -8.5772    0.0000 C   0  0
    4.1229   -9.1692    0.0000 C   0  0
    6.7115   -9.4626    0.0000 C   0  0
    6.5281  -10.9712    0.0000 C   0  0
    5.1553  -11.5632    0.0000 C   0  0
    3.9324  -10.6610    0.0000 C   0  0
  1  2  1  0
  2  3  2  0
  3  4  1  0
  4  5  1  0
  1  5  1  0
  6  7  1  0
  7  8  2  0
  8  9  1  0
  5  9  2  0
  4  6  2  0
 10 11  1  0
 11 12  2  0
 12 13  1  0
 13 14  2  0
 14 15  1  0
 10 15  2  0
 11 16  1  0
 17 18  1  0
 18 19  2  0
 19 20  1  0
 20 21  1  0
 17 21  1  0
 22 23  1  0
 23 24  2  0
 24 25  1  0
 21 25  2  0
 20 22  2  0
 13 18  1  0
  1 10  1  0
M  END
> <chembl_id>
CHEMBL3818240

$$$$

  SciTegic12161615062D

 29 32  0  0  0  0            999 V2000
    4.9397   -1.2009    0.0000 C   0  0
    4.0896    0.0290    0.0000 C   0  0
    4.7275    1.3885    0.0000 C   0  0
    6.2225    1.5110    0.0000 C   0  0
    7.0761    0.2776    0.0000 C   0  0
    6.4347   -1.0783    0.0000 N   0  0
    4.4262   -2.2855    0.0000 O   0  0
    3.8744    2.6233    0.0000 N   0  0
    4.5163    3.9799    0.0000 C   0  0
    3.6655    5.2153    0.0000 C   0  0
    4.3099    6.5698    0.0000 C   0  0
    5.8051    6.6891    0.0000 C   0  0
    6.6560    5.4538    0.0000 C   0  0
    6.0117    4.0992    0.0000 C   0  0
    2.1692    5.0991    0.0000 O   0  0
    1.4899    6.0883    0.0000 C   0  0
    2.5889    0.0182    0.0000 C   0  0
    1.7138    1.2033    0.0000 N   0  0
    1.7138   -1.2033    0.0000 N   0  0
    0.2917   -0.7475    0.0000 C   0  0
    0.2917    0.7475    0.0000 C   0  0
   -1.0028    1.5132    0.0000 C   0  0
   -2.3155    0.7475    0.0000 C   0  0
   -2.3155   -0.7475    0.0000 C   0  0
   -1.0028   -1.5132    0.0000 C   0  0
   -0.9991    2.7132    0.0000 C   0  0
   -0.9971   -3.0138    0.0000 C   0  0
   -2.0337   -3.6184    0.0000 C   0  0
    0.0446   -3.6095    0.0000 C   0  0
  1  2  1  0
  2  3  2  0
  3  4  1  0
  4  5  2  0
  5  6  1  0
  1  6  1  0
  1  7  2  0
  3  8  1  0
  8  9  1  0
  9 10  2  0
 10 11  1  0
 11 12  2  0
 12 13  1  0
 13 14  2  0
 14  9  1  0
 10 15  1  0
 15 16  1  0
 17 18  1  0
 18 21  1  0
 20 19  1  0
 19 17  2  0
  2 17  1  0
 20 21  2  0
 21 22  1  0
 22 23  2  0
 23 24  1  0
 24 25  2  0
 25 20  1  0
 22 26  1  0
 25 27  1  0
 27 28  1  0
 27 29  1  0
M  END
> <chembl_id>
CHEMBL3780404

$$$$

  SciTegic04191617032D

 27 30  0  0  0  0            999 V2000
   -2.6111    0.7486    0.0000 C   0  0
   -2.6111   -0.7486    0.0000 C   0  0
   -1.2964   -1.4973    0.0000 C   0  0
   -1.2964    1.4973    0.0000 C   0  0
    0.0000    0.7486    0.0000 C   0  0
    0.0000   -0.7486    0.0000 C   0  0
    1.2964   -1.4973    0.0000 N   0  0
    2.5929   -0.7486    0.0000 C   0  0
    2.5929    0.7486    0.0000 N   0  0
    1.2964    1.4973    0.0000 C   0  0
    1.2995    2.9981    0.0000 N   0  0
    2.6003    3.7467    0.0000 C   0  0
    2.7434    5.2271    0.0000 C   0  0
    4.2117    5.5338    0.0000 C   0  0
    4.9571    4.2322    0.0000 N   0  0
    3.9496    3.1210    0.0000 N   0  0
    3.8926   -1.4990    0.0000 C   0  0
    5.1929   -0.7510    0.0000 C   0  0
    6.4908   -1.5029    0.0000 C   0  0
    6.4885   -3.0029    0.0000 C   0  0
    5.1883   -3.7510    0.0000 C   0  0
    3.8904   -2.9990    0.0000 C   0  0
   -3.9091   -1.5019    0.0000 N   0  0
   -3.9067   -3.0027    0.0000 C   0  0
   -5.2049   -3.7560    0.0000 C   0  0
   -2.8664   -3.6008    0.0000 O   0  0
   -5.2030   -4.9560    0.0000 C   0  0
  1  2  2  0
  2  3  1  0
  3  6  2  0
  5  4  2  0
  4  1  1  0
  5  6  1  0
  6  7  1  0
  7  8  2  0
  8  9  1  0
  9 10  2  0
 10  5  1  0
 10 11  1  0
 11 12  1  0
 12 13  1  0
 13 14  2  0
 14 15  1  0
 15 16  1  0
 16 12  2  0
  8 17  1  0
 17 18  2  0
 18 19  1  0
 19 20  2  0
 20 21  1  0
 21 22  2  0
 22 17  1  0
  2 23  1  0
 23 24  1  0
 24 25  1  0
 24 26  2  0
 25 27  1  0
M  END
> <chembl_id>
CHEMBL3604910

$$$$

  SciTegic11131810102D

 39 42  0  0  0  0            999 V2000
    3.6387   -0.8963    0.0000 C   0  0
    2.6003   -1.4977    0.0000 O   0  0
    1.2990   -0.7500    0.0000 C   0  0
    1.2990    0.7500    0.0000 C   0  0
    0.0000    1.5000    0.0000 C   0  0
   -0.0031    3.0008    0.0000 N   0  0
   -1.3039    3.7494    0.0000 C   0  0
   -1.6524    5.1712    0.0000 C   0  0
   -3.0999    4.7779    0.0000 N   0  0
   -4.3986    5.5180    0.0000 C   0  0
   -5.6946    4.7611    0.0000 C   0  0
   -6.7372    5.3553    0.0000 F   0  0
   -2.7066    3.3304    0.0000 C   0  0
   -1.2990    0.7500    0.0000 C   0  0
   -1.2990   -0.7500    0.0000 C   0  0
    0.0000   -1.5000    0.0000 C   0  0
   -0.0031   -3.0008    0.0000 N   0  0
   -1.3039   -3.7494    0.0000 C   0  0
   -1.3092   -5.2494    0.0000 N   0  0
   -2.6108   -5.9949    0.0000 C   0  0
   -3.9072   -5.2404    0.0000 C   0  0
   -3.9020   -3.7404    0.0000 C   0  0
   -5.1977   -2.9829    0.0000 N   0  0
   -5.1903   -1.4821    0.0000 C   0  0
   -6.4841   -0.7230    0.0000 C   0  0
   -6.4738    0.7769    0.0000 C   0  0
   -5.1696    1.5179    0.0000 C   0  0
   -3.8758    0.7590    0.0000 C   0  0
   -2.5693    1.4977    0.0000 N   0  0
   -1.2759    0.7365    0.0000 C   0  0
   -1.2862   -0.4635    0.0000 O   0  0
    0.0306    1.4752    0.0000 C   0  0
    1.0648    0.8666    0.0000 C   0  0
   -3.8861   -0.7410    0.0000 C   0  0
   -2.6004   -2.9949    0.0000 N   0  0
   -5.2096   -5.9864    0.0000 C   0  0
   -5.2145   -7.1863    0.0000 F   0  0
   -6.2465   -5.3824    0.0000 F   0  0
   -6.2512   -6.5823    0.0000 F   0  0
  1  2  1  0
  2  3  1  0
  3  4  2  0
  4  5  1  0
  5  6  1  0
  6  7  1  0
  7  8  1  0
  8  9  1  0
  9 10  1  0
 10 11  1  0
 11 12  1  0
  9 13  1  0
 13  7  1  0
  5 14  2  0
 14 15  1  0
 15 16  2  0
 16  3  1  0
 16 17  1  0
 17 18  1  0
 18 19  2  0
 19 20  1  0
 20 21  2  0
 21 22  1  0
 22 23  1  0
 23 24  1  0
 24 25  2  0
 25 26  1  0
 26 27  2  0
 27 28  1  0
 28 29  1  0
 29 30  1  0
 30 31  2  0
 30 32  1  0
 32 33  2  0
 28 34  2  0
 34 24  1  0
 22 35  2  0
 35 18  1  0
 21 36  1  0
 36 37  1  0
 36 38  1  0
 36 39  1  0
M  END
> <chembl_id>
CHEMBL3985592

$$$$

  SciTegic02131210002D

 27 31  0  0  0  0            999 V2000
   -5.8292  -21.8458    0.0000 C   0  0
   -5.8292  -22.6708    0.0000 N   0  0
   -5.1171  -23.0792    0.0000 C   0  0
   -5.1171  -21.4292    0.0000 C   0  0
   -4.4051  -21.8458    0.0000 C   0  0
   -4.4041  -22.6708    0.0000 C   0  0
   -2.9795  -21.8440    0.0000 N   0  0
   -3.6951  -21.4301    0.0000 C   0  0
   -2.9785  -22.6690    0.0000 C   0  0
   -3.6976  -23.0792    0.0000 C   0  0
   -3.7019  -23.9025    0.0000 C   0  0
   -2.9888  -24.3219    0.0000 C   0  0
   -2.2697  -23.9117    0.0000 C   0  0
   -2.2637  -23.0821    0.0000 C   0  0
   -3.6973  -20.6052    0.0000 N   0  0
   -2.9840  -20.1907    0.0000 C   0  0
   -2.2677  -20.6042    0.0000 C   0  0
   -1.5549  -20.1905    0.0000 C   0  0
   -1.5566  -19.3646    0.0000 C   0  0
   -2.2772  -18.9625    0.0000 C   0  0
   -2.9871  -19.3703    0.0000 C   0  0
   -3.7019  -18.9584    0.0000 Cl  0  0
   -1.5452  -22.6716    0.0000 C   0  0
   -0.7928  -23.0101    0.0000 N   0  0
   -0.2384  -22.3991    0.0000 C   0  0
   -0.6482  -21.6830    0.0000 N   0  0
   -1.4558  -21.8515    0.0000 N   0  0
 10 11  1  0
 11 12  2  0
 12 13  1  0
 13 14  2  0
  2  3  1  0
  8 15  1  0
  5  8  1  0
 15 16  1  0
  6 10  1  0
 16 17  2  0
  9  7  1  0
 17 18  1  0
  7  8  2  0
 18 19  2  0
  9 10  2  0
 19 20  1  0
  3  6  2  0
 20 21  2  0
 21 16  1  0
  5  4  2  0
 21 22  1  0
 23 24  1  0
  5  6  1  0
  1  2  2  0
  1  4  1  0
  9 14  1  0
 24 25  1  0
 25 26  2  0
 26 27  1  0
 27 23  2  0
 14 23  1  0
M  END
> <chembl_id>
CHEMBL1915438

$$$$

  Mrv0541 05211314572D          

 28 29  0  0  0  0            999 V2000
    6.2596   -4.1127    0.0000 C   0  0  0  0  0  0  0  0  0  0  0  0
    6.9741   -4.5252    0.0000 C   0  0  0  0  0  0  0  0  0  0  0  0
    6.9741   -5.3502    0.0000 C   0  0  0  0  0  0  0  0  0  0  0  0
    6.2596   -5.7627    0.0000 C   0  0  0  0  0  0  0  0  0  0  0  0
    5.5452   -5.3502    0.0000 C   0  0  0  0  0  0  0  0  0  0  0  0
    5.5452   -4.5252    0.0000 C   0  0  0  0  0  0  0  0  0  0  0  0
    4.8307   -5.7627    0.0000 C   0  0  0  0  0  0  0  0  0  0  0  0
    4.1162   -5.3502    0.0000 C   0  0  0  0  0  0  0  0  0  0  0  0
    3.4018   -5.7627    0.0000 C   0  0  0  0  0  0  0  0  0  0  0  0
    2.6873   -5.3502    0.0000 C   0  0  0  0  0  0  0  0  0  0  0  0
    3.4018   -6.5877    0.0000 O   0  0  0  0  0  0  0  0  0  0  0  0
    2.6873   -4.5252    0.0000 C   0  0  0  0  0  0  0  0  0  0  0  0
    1.9728   -4.1127    0.0000 C   0  0  0  0  0  0  0  0  0  0  0  0
    3.4018   -4.1127    0.0000 O   0  0  0  0  0  0  0  0  0  0  0  0
    1.9728   -3.2877    0.0000 C   0  0  0  0  0  0  0  0  0  0  0  0
    1.2583   -2.8752    0.0000 C   0  0  0  0  0  0  0  0  0  0  0  0
    0.5439   -3.2877    0.0000 C   0  0  0  0  0  0  0  0  0  0  0  0
   -0.1706   -2.8752    0.0000 C   0  0  0  0  0  0  0  0  0  0  0  0
   -0.1706   -2.0502    0.0000 C   0  0  0  0  0  0  0  0  0  0  0  0
    0.5439   -1.6377    0.0000 C   0  0  0  0  0  0  0  0  0  0  0  0
    1.2583   -2.0502    0.0000 C   0  0  0  0  0  0  0  0  0  0  0  0
    6.2596   -3.2877    0.0000 O   0  0  0  0  0  0  0  0  0  0  0  0
    0.5439   -0.8127    0.0000 O   0  0  0  0  0  0  0  0  0  0  0  0
    5.5452   -2.8752    0.0000 C   0  0  0  0  0  0  0  0  0  0  0  0
   -0.1706   -0.4002    0.0000 C   0  0  0  0  0  0  0  0  0  0  0  0
    7.6886   -4.1127    0.0000 O   0  0  0  0  0  0  0  0  0  0  0  0
   -0.8851   -1.6377    0.0000 O   0  0  0  0  0  0  0  0  0  0  0  0
    7.6886   -3.2877    0.0000 C   0  0  0  0  0  0  0  0  0  0  0  0
  1  2  2  0  0  0  0
 12 14  1  0  0  0  0
  5  7  1  0  0  0  0
 13 15  2  0  0  0  0
  3  4  2  0  0  0  0
 15 16  1  0  0  0  0
  7  8  2  0  0  0  0
 16 17  2  0  0  0  0
 17 18  1  0  0  0  0
  8  9  1  0  0  0  0
 18 19  2  0  0  0  0
  4  5  1  0  0  0  0
 19 20  1  0  0  0  0
  9 10  1  0  0  0  0
 20 21  2  0  0  0  0
 21 16  1  0  0  0  0
  2  3  1  0  0  0  0
  1 22  1  0  0  0  0
  9 11  2  0  0  0  0
 20 23  1  0  0  0  0
  5  6  2  0  0  0  0
 22 24  1  0  0  0  0
 10 12  2  0  0  0  0
 23 25  1  0  0  0  0
  6  1  1  0  0  0  0
  2 26  1  0  0  0  0
 12 13  1  0  0  0  0
 19 27  1  0  0  0  0
 26 28  1  0  0  0  0
M  END
> <chembl_id>
CHEMBL494826

$$$$

  SciTegic05061409512D

 24 26  0  0  0  0            999 V2000
   25.9394  -10.8078    0.0000 N   0  0
   26.6490  -10.3983    0.0000 C   0  0
   26.6462   -9.5757    0.0000 N   0  0
   25.9376   -9.1704    0.0000 C   0  0
   25.2313  -10.3988    0.0000 C   0  0
   25.2336   -9.5769    0.0000 C   0  0
   24.5241   -9.1658    0.0000 C   0  0
   23.8118   -9.5754    0.0000 C   0  0
   23.8135  -10.4004    0.0000 C   0  0
   24.5236  -10.8078    0.0000 C   0  0
   25.9359   -8.3532    0.0000 N   0  0
   23.1041   -9.1669    0.0000 N   0  0
   22.3964   -9.5756    0.0000 C   0  0
   21.6886   -9.1672    0.0000 C   0  0
   22.3966  -10.3928    0.0000 O   0  0
   20.9810   -9.5759    0.0000 C   0  0
   26.6427   -7.9431    0.0000 C   0  0
   27.3516   -8.3553    0.0000 C   0  0
   28.0580   -7.9459    0.0000 C   0  0
   28.0567   -7.1279    0.0000 C   0  0
   27.3432   -6.7209    0.0000 C   0  0
   26.6398   -7.1327    0.0000 C   0  0
   27.3386   -5.9037    0.0000 C   0  0
   28.0440   -5.4912    0.0000 C   0  0
  5  1  1  0
  1  2  2  0
  2  3  1  0
  3  4  2  0
  4  6  1  0
  5  6  1  0
  6  7  2  0
  7  8  1  0
  8  9  2  0
  9 10  1  0
 10  5  2  0
  4 11  1  0
  8 12  1  0
 12 13  1  0
 13 14  1  0
 13 15  2  0
 14 16  2  0
 11 17  1  0
 17 18  2  0
 18 19  1  0
 19 20  2  0
 20 21  1  0
 21 22  2  0
 22 17  1  0
 21 23  1  0
 23 24  1  0
M  END
> <chembl_id>
CHEMBL3133908

$$$$

  SciTegic02271217242D

 25 28  0  0  0  0            999 V2000
   -2.8128  -10.2444    0.0000 N   0  0
   -2.0963   -9.8310    0.0000 C   0  0
   -2.0992   -9.0005    0.0000 N   0  0
   -2.8146   -8.5914    0.0000 C   0  0
   -3.5276   -9.8315    0.0000 C   0  0
   -3.5263   -9.0026    0.0000 C   0  0
   -4.3143   -8.7452    0.0000 N   0  0
   -4.8026   -9.4151    0.0000 C   0  0
   -4.3163  -10.0864    0.0000 C   0  0
   -2.8164   -7.7664    0.0000 N   0  0
   -2.1028   -7.3523    0.0000 C   0  0
   -1.3906   -7.7662    0.0000 C   0  0
   -0.6775   -7.3528    0.0000 C   0  0
   -0.6788   -6.5269    0.0000 C   0  0
   -1.3992   -6.1162    0.0000 C   0  0
   -2.1094   -6.5319    0.0000 C   0  0
    0.0377   -7.7641    0.0000 Cl  0  0
    0.0342   -6.1119    0.0000 O   0  0
    0.7501   -6.5219    0.0000 C   0  0
    0.7501   -7.3469    0.0000 C   0  0
    1.4652   -7.7568    0.0000 C   0  0
    2.1792   -7.3417    0.0000 C   0  0
    2.1736   -6.5125    0.0000 C   0  0
    1.4580   -6.1063    0.0000 C   0  0
    2.8852   -6.0950    0.0000 F   0  0
 11 12  2  0
  5  1  1  0
 12 13  1  0
  2  3  1  0
 13 14  2  0
 14 15  1  0
  3  4  2  0
 15 16  2  0
 16 11  1  0
  6  7  1  0
 13 17  1  0
  7  8  1  0
 14 18  1  0
  8  9  2  0
 18 19  1  0
  9  5  1  0
 19 20  2  0
  4  6  1  0
 20 21  1  0
  4 10  1  0
 21 22  2  0
  5  6  2  0
 22 23  1  0
 10 11  1  0
 23 24  2  0
 24 19  1  0
  1  2  2  0
 23 25  1  0
M  END
> <chembl_id>
CHEMBL1922899

$$$$

  SciTegic12091614092D

 38 42  0  0  0  0            999 V2000
   -1.2964    1.4973    0.0000 C   0  0
   -2.6111    0.7486    0.0000 C   0  0
   -2.6111   -0.7486    0.0000 C   0  0
   -1.2964   -1.4973    0.0000 C   0  0
    0.0000   -0.7486    0.0000 C   0  0
    1.2964   -1.4973    0.0000 C   0  0
    2.5929   -0.7486    0.0000 C   0  0
    2.5929    0.7486    0.0000 C   0  0
    1.2964    1.4973    0.0000 C   0  0
    0.0000    0.7486    0.0000 C   0  0
   -1.2907    2.9981    0.0000 C   0  0
   -0.2489    3.5938    0.0000 O   0  0
   -2.5870    3.7544    0.0000 N   0  0
    3.8942   -1.4964    0.0000 O   0  0
    7.7910   -0.7351    0.0000 C   0  0
    6.4946   -1.4896    0.0000 N   0  0
    5.1929   -0.7441    0.0000 C   0  0
    5.1877    0.7559    0.0000 C   0  0
    6.4842    1.5104    0.0000 C   0  0
    7.7858    0.7649    0.0000 N   0  0
    9.0949   -1.4783    0.0000 N   0  0
   10.3910   -0.7216    0.0000 C   0  0
   11.6952   -1.4625    0.0000 C   0  0
   12.9890   -0.7035    0.0000 C   0  0
   12.9787    0.7965    0.0000 C   0  0
   11.6745    1.5374    0.0000 C   0  0
   10.3806    0.7785    0.0000 C   0  0
   14.2955   -1.4422    0.0000 C   0  0
   15.5889   -0.6810    0.0000 S   0  0
   16.6335   -1.2716    0.0000 O   0  0
   15.5785    0.5190    0.0000 O   0  0
   16.6228   -0.0719    0.0000 C   0  0
   -2.5812    5.2552    0.0000 C   0  0
   -3.8758    6.0130    0.0000 C   0  0
   -3.8669    7.5130    0.0000 N   0  0
   -2.5634    8.2553    0.0000 C   0  0
   -1.2688    7.4976    0.0000 C   0  0
   -1.2777    5.9976    0.0000 C   0  0
  1  2  1  0
  2  3  2  0
  3  4  1  0
  4  5  2  0
  5  6  1  0
  6  7  2  0
  7  8  1  0
  8  9  2  0
  9 10  1  0
  1 10  2  0
  5 10  1  0
  1 11  1  0
 11 12  2  0
 11 13  1  0
 15 16  1  0
 16 17  2  0
 17 18  1  0
 18 19  2  0
 19 20  1  0
 15 20  2  0
 14 17  1  0
 22 23  1  0
 23 24  2  0
 24 25  1  0
 25 26  2  0
 26 27  1  0
 22 27  2  0
 29 30  2  0
 29 31  2  0
 29 32  1  0
 28 29  1  0
 24 28  1  0
 21 22  1  0
 15 21  1  0
  7 14  1  0
 13 33  1  0
 33 34  2  0
 34 35  1  0
 35 36  2  0
 36 37  1  0
 37 38  2  0
 38 33  1  0
M  END
> <chembl_id>
CHEMBL3739732

$$$$

  SciTegic04191617032D

 23 25  0  0  0  0            999 V2000
    1.2990   -0.7500    0.0000 C   0  0
    1.2990    0.7500    0.0000 C   0  0
    0.0000    1.5000    0.0000 N   0  0
   -1.2990    0.7500    0.0000 C   0  0
   -1.2990   -0.7500    0.0000 N   0  0
    0.0000   -1.5000    0.0000 C   0  0
   -2.5987    1.5004    0.0000 C   0  0
   -2.6012    3.0004    0.0000 C   0  0
   -3.9015    3.7484    0.0000 C   0  0
   -5.1993    2.9963    0.0000 C   0  0
   -5.1969    1.4963    0.0000 C   0  0
   -3.8967    0.7484    0.0000 C   0  0
    0.0031   -3.0008    0.0000 N   0  0
    1.3039   -3.7494    0.0000 C   0  0
    1.4469   -5.2297    0.0000 C   0  0
    2.9152   -5.5365    0.0000 C   0  0
    3.6607   -4.2349    0.0000 N   0  0
    2.6532   -3.1236    0.0000 N   0  0
    2.5972    1.5031    0.0000 N   0  0
    2.5951    3.0039    0.0000 C   0  0
    3.8933    3.7570    0.0000 C   0  0
    1.5548    3.6021    0.0000 O   0  0
    3.8916    4.9570    0.0000 C   0  0
  1  2  2  0
  2  3  1  0
  3  4  2  0
  4  5  1  0
  5  6  2  0
  6  1  1  0
  4  7  1  0
  7  8  2  0
  8  9  1  0
  9 10  2  0
 10 11  1  0
 11 12  2  0
 12  7  1  0
  6 13  1  0
 13 14  1  0
 14 15  1  0
 15 16  2  0
 16 17  1  0
 17 18  1  0
 18 14  2  0
  2 19  1  0
 19 20  1  0
 20 21  1  0
 20 22  2  0
 21 23  1  0
M  END
> <chembl_id>
CHEMBL3604918

$$$$

  SciTegic04201614442D

 38 41  0  0  0  0            999 V2000
   -2.6111    0.7486    0.0000 N   0  0
   -2.6111   -0.7486    0.0000 C   0  0
   -1.2964   -1.4973    0.0000 N   0  0
   -1.2964    1.4973    0.0000 C   0  0
    0.0000    0.7486    0.0000 C   0  0
    0.0000   -0.7486    0.0000 C   0  0
    1.2964   -1.4973    0.0000 N   0  0
    1.2964    1.4973    0.0000 C   0  0
    2.5929    0.7486    0.0000 C   0  0
    2.5929   -0.7486    0.0000 C   0  0
    1.2964   -2.9980    0.0000 C   0  0
   -0.0014   -3.7503    0.0000 C   0  0
    0.0011   -5.2503    0.0000 C   0  0
    1.3014   -5.9981    0.0000 C   0  0
    2.5992   -5.2460    0.0000 C   0  0
    2.5967   -3.7460    0.0000 C   0  0
    3.9017   -5.9916    0.0000 N   0  0
    5.1991   -5.2372    0.0000 C   0  0
    6.5017   -5.9828    0.0000 C   0  0
    5.1951   -4.0372    0.0000 O   0  0
    7.5390   -5.3796    0.0000 C   0  0
   -3.9091   -1.5019    0.0000 N   0  0
   -3.9067   -3.0027    0.0000 C   0  0
   -5.2030   -3.7575    0.0000 C   0  0
   -5.1976   -5.2575    0.0000 C   0  0
   -3.8958   -6.0028    0.0000 C   0  0
   -2.5995   -5.2481    0.0000 C   0  0
   -2.6050   -3.7481    0.0000 C   0  0
   -3.8873   -7.5036    0.0000 O   0  0
   -2.5838   -8.2475    0.0000 C   0  0
    3.6321   -1.3486    0.0000 O   0  0
    1.2964    2.6973    0.0000 C   0  0
   -6.5071   -3.0146    0.0000 O   0  0
   -7.5432   -3.6199    0.0000 C   0  0
   -2.5752   -9.7483    0.0000 C   0  0
   -1.2717  -10.4921    0.0000 N   0  0
   -1.2649  -11.6921    0.0000 C   0  0
   -0.2357   -9.8865    0.0000 C   0  0
  1  2  2  0
  2  3  1  0
  3  6  2  0
  5  4  2  0
  4  1  1  0
  5  6  1  0
  5  8  1  0
  6  7  1  0
  7 10  1  0
  9  8  2  0
  9 10  1  0
 11 12  2  0
 12 13  1  0
 13 14  2  0
 14 15  1  0
 15 16  2  0
 16 11  1  0
  7 11  1  0
 15 17  1  0
 17 18  1  0
 18 19  1  0
 18 20  2  0
 19 21  2  0
  2 22  1  0
 22 23  1  0
 23 24  2  0
 24 25  1  0
 25 26  2  0
 26 27  1  0
 27 28  2  0
 28 23  1  0
 29 30  1  0
 26 29  1  0
 10 31  2  0
  8 32  1  0
 33 34  1  0
 24 33  1  0
 30 35  1  0
 35 36  1  0
 36 37  1  0
 36 38  1  0
M  END
> <chembl_id>
CHEMBL3633152

$$$$

  SciTegic01181116592D

 44 50  0  0  0  0            999 V2000
   -2.5685   -0.9809    0.0000 C   0  0  2  0  0  0
   -3.1200   -1.5932    0.0000 C   0  0
   -2.8681   -2.3750    0.0000 C   0  0
   -2.0617   -2.5509    0.0000 C   0  0  1  0  0  0
   -1.5075   -1.9385    0.0000 C   0  0
   -1.7597   -1.1502    0.0000 C   0  0
   -1.8099   -3.3366    0.0000 N   0  0
   -2.3628   -3.9454    0.0000 C   0  0
   -2.1139   -4.7282    0.0000 C   0  0
   -1.3082   -4.9071    0.0000 N   0  0
   -0.7517   -4.2968    0.0000 C   0  0
   -1.0008   -3.5076    0.0000 C   0  0
   -1.0593   -5.6937    0.0000 C   0  0
   -2.8245   -0.1966    0.0000 N   0  0
   -5.0348    0.8792    0.0000 N   0  0
   -5.0359    0.0560    0.0000 C   0  0
   -4.3169   -0.3569    0.0000 N   0  0
   -4.3187    1.2920    0.0000 C   0  0
   -3.6075    0.8828    0.0000 C   0  0
   -3.6068    0.0560    0.0000 C   0  0
   -2.3387    0.4665    0.0000 N   0  0
   -2.8224    1.1366    0.0000 C   0  0
   -2.4118    1.8515    0.0000 C   0  0
   -1.5859    1.8496    0.0000 C   0  0
   -1.1751    2.5641    0.0000 C   0  0
   -1.5892    3.2787    0.0000 C   0  0
   -2.4185    3.2742    0.0000 C   0  0
   -2.8256    2.5590    0.0000 C   0  0
   -1.1792    3.9946    0.0000 N   0  0
   -0.3542    3.9975    0.0000 C   0  0
    0.1326    3.3371    0.0000 O   0  0
    0.1278    4.6781    0.0000 N   0  0
    0.9134    4.4218    0.0000 C   0  0
    0.9141    3.5976    0.0000 C   0  0
    1.6254    3.1890    0.0000 C   0  0
    2.3364    3.6014    0.0000 C   0  0
    2.3317    4.4316    0.0000 C   0  0
    1.6198    4.8350    0.0000 C   0  0
    1.6270    2.3640    0.0000 Cl  0  0
   -4.3191    2.1170    0.0000 N   0  0
   -0.2537   -5.8714    0.0000 C   0  0
   -0.0048   -6.6580    0.0000 C   0  0
    0.8008   -6.8357    0.0000 O   0  0
    1.0497   -7.6223    0.0000 C   0  0
 20 14  1  0
 14 21  1  0
 21 22  2  0
 22 19  1  0
  8  9  1  0
 22 23  1  0
  9 10  1  0
 23 24  2  0
 10 11  1  0
 24 25  1  0
 11 12  1  0
 25 26  2  0
  5  6  1  0
 26 27  1  0
 10 13  1  0
 27 28  2  0
 28 23  1  0
  1  2  1  0
 26 29  1  0
  1 14  1  1
 29 30  1  0
 30 31  1  0
  4  7  1  1
  7  8  1  0
 31 34  1  0
 33 32  1  0
 32 30  2  0
 15 16  2  0
 33 34  2  0
 16 17  1  0
 34 35  1  0
 17 20  2  0
 35 36  2  0
  1  6  1  0
 36 37  1  0
 19 18  2  0
 37 38  2  0
 38 33  1  0
 18 15  1  0
 35 39  1  0
 19 20  1  0
 18 40  1  0
  2  3  1  0
 13 41  1  0
  3  4  1  0
 41 42  1  0
  4  5  1  0
 42 43  1  0
  7 12  1  0
 43 44  1  0
M  END
> <chembl_id>
CHEMBL1256428

$$$$

  SciTegic04071410272D

 42 48  0  0  0  0            999 V2000
   20.2065   -2.1351    0.0000 C   0  0
   19.6550   -2.7474    0.0000 C   0  0
   19.9069   -3.5292    0.0000 C   0  0
   21.2675   -3.0927    0.0000 C   0  0
   21.0153   -2.3044    0.0000 C   0  0
   20.4122   -5.0996    0.0000 C   0  0
   20.6611   -5.8824    0.0000 C   0  0
   21.4668   -6.0613    0.0000 N   0  0
   22.0233   -5.4510    0.0000 C   0  0
   21.7742   -4.6618    0.0000 C   0  0
   21.7157   -6.8479    0.0000 C   0  0
   19.9505   -1.3508    0.0000 N   0  0
   17.7402   -0.2750    0.0000 N   0  0
   17.7391   -1.0982    0.0000 C   0  0
   18.4581   -1.5110    0.0000 N   0  0
   18.4563    0.1378    0.0000 C   0  0
   19.1675   -0.2713    0.0000 C   0  0
   19.1682   -1.0982    0.0000 C   0  0
   20.4363   -0.6877    0.0000 N   0  0
   19.9526   -0.0176    0.0000 C   0  0
   20.3632    0.6973    0.0000 C   0  0
   21.1891    0.6954    0.0000 C   0  0
   21.5999    1.4099    0.0000 C   0  0
   21.1858    2.1245    0.0000 C   0  0
   20.3565    2.1200    0.0000 C   0  0
   19.9494    1.4049    0.0000 C   0  0
   21.5958    2.8404    0.0000 N   0  0
   22.4208    2.8433    0.0000 C   0  0
   22.9076    2.1829    0.0000 O   0  0
   22.9028    3.5177    0.0000 N   0  0
   23.6884    3.2657    0.0000 C   0  0
   23.6891    2.4435    0.0000 C   0  0
   24.4004    2.0348    0.0000 C   0  0
   25.1114    2.4472    0.0000 C   0  0
   25.1067    3.2725    0.0000 C   0  0
   24.3948    3.6775    0.0000 C   0  0
   24.4020    1.2098    0.0000 Cl  0  0
   18.4559    0.9628    0.0000 N   0  0
   21.1589   -7.4567    0.0000 C   0  0
   22.5213   -7.0256    0.0000 C   0  0
   20.9651   -4.4907    0.0000 C   0  0
   20.7133   -3.7051    0.0000 N   0  0
 42  4  1  0
 41 10  1  0
 18 12  1  0
 12 19  1  0
 19 20  2  0
 20 17  1  0
  6  7  1  0
 20 21  1  0
  7  8  1  0
 21 22  2  0
  8  9  1  0
 22 23  1  0
  9 10  1  0
 23 24  2  0
  4  5  1  0
 24 25  1  0
  8 11  1  0
 25 26  2  0
 26 21  1  0
  1  2  1  0
 24 27  1  0
  1 12  1  0
 27 28  1  0
 28 29  1  0
 42 41  1  0
 41  6  1  0
 29 32  1  0
 31 30  1  0
 30 28  2  0
 13 14  2  0
 31 32  2  0
 14 15  1  0
 32 33  1  0
 15 18  2  0
 33 34  2  0
  1  5  1  0
 34 35  1  0
 17 16  2  0
 35 36  2  0
 36 31  1  0
 16 13  1  0
 33 37  1  0
 17 18  1  0
 16 38  1  0
  2  3  1  0
 11 39  1  0
  3 42  1  0
 11 40  1  0
M  END
> <chembl_id>
CHEMBL1256430

$$$$

  SciTegic08011209522D

 39 43  0  0  0  0            999 V2000
    4.5236    2.6875    0.0000 N   0  0
    4.5224    1.8602    0.0000 C   0  0
    5.2372    1.4473    0.0000 N   0  0
    5.2354    3.1003    0.0000 C   0  0
    5.9508    2.6912    0.0000 C   0  0
    5.9542    1.8581    0.0000 C   0  0
    6.6734    1.4468    0.0000 N   0  0
    7.3938    1.8640    0.0000 C   0  0
    7.3904    2.6971    0.0000 N   0  0
    6.6666    3.1130    0.0000 C   0  0
    6.6774    0.6252    0.0000 C   0  0
    5.9624    0.2114    0.0000 C   0  0
    5.9643   -0.6128    0.0000 C   0  0
    6.6804   -1.0242    0.0000 C   0  0
    7.3961   -0.6053    0.0000 C   0  0
    7.3907    0.2175    0.0000 C   0  0
    3.8076    1.4482    0.0000 N   0  0
    3.8070    0.6232    0.0000 C   0  0
    3.0921    0.2129    0.0000 C   0  0
    3.0911   -0.6114    0.0000 C   0  0
    3.8057   -1.0253    0.0000 C   0  0
    4.5229   -0.6089    0.0000 C   0  0
    4.5204    0.2140    0.0000 C   0  0
    8.1094    1.4534    0.0000 O   0  0
    8.1132   -1.0134    0.0000 N   0  0
    8.1183   -1.8383    0.0000 C   0  0
    8.8354   -2.2464    0.0000 C   0  0
    7.4065   -2.2553    0.0000 O   0  0
    8.8405   -3.0714    0.0000 C   0  0
    3.8062   -1.8503    0.0000 N   0  0
    8.1036    3.1118    0.0000 C   0  0
    3.0893   -2.2599    0.0000 C   0  0
    3.0877   -3.0813    0.0000 C   0  0
    3.8006   -3.4972    0.0000 N   0  0
    4.5167   -3.0856    0.0000 C   0  0
    4.5199   -2.2580    0.0000 C   0  0
    3.7979   -4.3222    0.0000 C   0  0
    2.3784    0.6267    0.0000 O   0  0
    2.3799    1.4517    0.0000 C   0  0
  6  7  1  0
 18 19  2  0
  7  8  1  0
 19 20  1  0
  8  9  1  0
 20 21  2  0
  9 10  1  0
 21 22  1  0
  5  6  1  0
 22 23  2  0
 23 18  1  0
  8 24  2  0
 11 12  2  0
 15 25  1  0
  2  3  1  0
 25 26  1  0
 12 13  1  0
 26 27  1  0
  3  6  2  0
 26 28  2  0
 13 14  2  0
 27 29  2  0
  1  2  2  0
 21 30  1  0
 14 15  1  0
  9 31  1  0
 30 32  1  0
  5  4  2  0
 15 16  2  0
 16 11  1  0
  7 11  1  0
  4  1  1  0
 30 36  1  0
 32 33  1  0
 33 34  1  0
 34 35  1  0
 35 36  1  0
  2 17  1  0
 34 37  1  0
  5 10  1  0
 19 38  1  0
 17 18  1  0
 38 39  1  0
M  END
> <chembl_id>
CHEMBL2032376

$$$$

  SciTegic06051313552D

 29 33  0  0  0  0            999 V2000
   10.3208   -8.6919    0.0000 C   0  0
   10.3196   -9.5114    0.0000 C   0  0
   11.0277   -9.9204    0.0000 C   0  0
   11.7373   -9.5110    0.0000 C   0  0
   11.7345   -8.6883    0.0000 C   0  0
   11.0259   -8.2830    0.0000 C   0  0
   12.4152   -8.2362    0.0000 C   0  0
   13.1825   -8.5173    0.0000 C   0  0
   13.6870   -7.8745    0.0000 C   0  0
   13.2311   -7.1965    0.0000 N   0  0
   12.4455   -7.4196    0.0000 N   0  0
   13.6367   -6.4871    0.0000 C   0  0
   14.5015   -7.9046    0.0000 C   0  0
   15.7475   -7.2413    0.0000 C   0  0
   14.9329   -7.2145    0.0000 C   0  0
   14.4517   -6.4866    0.0000 C   0  0
   14.8572   -5.7780    0.0000 C   0  0
   14.4455   -5.0711    0.0000 C   0  0
   13.6241   -5.0772    0.0000 C   0  0
   13.2223   -5.7864    0.0000 C   0  0
   14.8835   -8.6255    0.0000 C   0  0
   16.1325   -7.9644    0.0000 C   0  0
   15.6986   -8.6565    0.0000 C   0  0
   16.0809   -9.3763    0.0000 C   0  0
   16.8971   -9.4052    0.0000 C   0  0
   17.3294   -8.7083    0.0000 C   0  0
   16.9446   -7.9914    0.0000 C   0  0
    9.6116   -9.9195    0.0000 O   0  0
    8.9042   -9.5103    0.0000 C   0  0
  1  2  2  0
  2  3  1  0
  3  4  2  0
  4  5  1  0
  5  6  2  0
  6  1  1  0
  7  8  1  0
  8  9  1  0
  9 10  1  0
 10 11  1  0
 11  7  2  0
  5  7  1  0
 10 12  1  0
 13 21  2  0
 22 14  1  0
 14 15  2  0
 15 13  1  0
  9 13  1  0
 12 16  2  0
 16 17  1  0
 17 18  2  0
 18 19  1  0
 19 20  2  0
 20 12  1  0
 23 21  1  0
 22 23  1  0
 23 24  2  0
 24 25  1  0
 25 26  2  0
 26 27  1  0
 27 22  2  0
  2 28  1  0
 28 29  1  0
M  END
> <chembl_id>
CHEMBL2325099

$$$$

  SciTegic12131613492D

 26 30  0  0  0  0            999 V2000
    0.8955    2.0810    0.0000 C   0  0
    1.7138    1.2033    0.0000 C   0  0
    2.8908    1.4370    0.0000 C   0  0
   -1.0028    1.5132    0.0000 N   0  0
   -2.3155    0.7475    0.0000 C   0  0
   -2.3155   -0.7475    0.0000 N   0  0
   -1.0028   -1.5132    0.0000 C   0  0
    0.2917    0.7475    0.0000 C   0  0
    0.2917   -0.7475    0.0000 C   0  0
    1.7138   -1.2033    0.0000 C   0  0
    2.5889    0.0182    0.0000 O   0  0
   -3.6168    1.4950    0.0000 C   0  0
   -4.9669    0.8708    0.0000 C   0  0
   -5.9732    1.9832    0.0000 S   0  0
   -5.2262    3.2840    0.0000 C   0  0
   -3.7582    2.9755    0.0000 N   0  0
   -0.9971   -3.0138    0.0000 N   0  0
   -2.2935   -3.7700    0.0000 C   0  0
   -4.6304   -4.2656    0.0000 N   0  0
   -3.6203   -3.1531    0.0000 N   0  0
   -3.8857   -5.5600    0.0000 C   0  0
   -2.4241   -5.2456    0.0000 C   0  0
   -1.4032   -6.3500    0.0000 C   0  0
   -1.8757   -7.7944    0.0000 C   0  0
   -3.3373   -8.1089    0.0000 C   0  0
   -4.3620   -6.9866    0.0000 C   0  0
  2  1  1  0
  3  2  1  0
  8  4  1  0
  4  5  2  0
  5  6  1  0
  6  7  2  0
  7  9  1  0
  8  9  2  0
  9 10  1  0
 10 11  1  0
 11  2  1  0
  2  8  1  0
  5 12  1  0
 12 13  2  0
 13 14  1  0
 14 15  1  0
 15 16  2  0
 16 12  1  0
  7 17  1  0
 17 18  1  0
 18 22  1  0
 21 19  1  0
 19 20  1  0
 20 18  2  0
 21 22  2  0
 22 23  1  0
 23 24  2  0
 24 25  1  0
 25 26  2  0
 26 21  1  0
M  END
> <chembl_id>
CHEMBL3759135

$$$$

  SciTegic12131613482D

 23 26  0  0  0  0            999 V2000
    0.8955    2.0810    0.0000 C   0  0
    1.7138    1.2033    0.0000 C   0  0
    2.8908    1.4370    0.0000 C   0  0
   -1.0028    1.5132    0.0000 N   0  0
   -2.3155    0.7475    0.0000 C   0  0
   -2.3155   -0.7475    0.0000 N   0  0
   -1.0028   -1.5132    0.0000 C   0  0
    0.2917    0.7475    0.0000 C   0  0
    0.2917   -0.7475    0.0000 C   0  0
    1.7138   -1.2033    0.0000 C   0  0
    2.5889    0.0182    0.0000 O   0  0
   -3.6168    1.4950    0.0000 C   0  0
   -4.9669    0.8708    0.0000 C   0  0
   -5.9732    1.9832    0.0000 N   0  0
   -5.2262    3.2840    0.0000 N   0  0
   -3.7582    2.9755    0.0000 C   0  0
   -0.9971   -3.0138    0.0000 N   0  0
   -2.2935   -3.7700    0.0000 C   0  0
   -2.4279   -5.2511    0.0000 C   0  0
   -3.8944   -5.5664    0.0000 C   0  0
   -4.6474   -4.2692    0.0000 N   0  0
   -3.6464   -3.1521    0.0000 N   0  0
   -4.3799   -6.6638    0.0000 C   0  0
  2  1  1  0
  3  2  1  0
  8  4  1  0
  4  5  2  0
  5  6  1  0
  6  7  2  0
  7  9  1  0
  8  9  2  0
  9 10  1  0
 10 11  1  0
 11  2  1  0
  2  8  1  0
  5 12  1  0
 12 13  2  0
 13 14  1  0
 14 15  1  0
 15 16  2  0
 16 12  1  0
  7 17  1  0
 17 18  1  0
 18 19  1  0
 19 20  2  0
 20 21  1  0
 21 22  1  0
 22 18  2  0
 20 23  1  0
M  END
> <chembl_id>
CHEMBL3759002

$$$$

  SciTegic10311316262D

 56 61  0  0  0  0            999 V2000
    3.1532   -7.5363    0.0000 O   0  0
    2.3360   -7.5363    0.0000 S   0  0
    2.7446   -8.2440    0.0000 O   0  0
    7.9848  -11.7130    0.0000 C   0  0
    7.9836  -12.5326    0.0000 C   0  0
    8.6917  -12.9415    0.0000 C   0  0
    9.4013  -12.5321    0.0000 C   0  0
    9.3985  -11.7094    0.0000 C   0  0
    8.6899  -11.3042    0.0000 C   0  0
    7.2777  -11.3002    0.0000 N   0  0
    7.2795  -10.4821    0.0000 C   0  0
    6.5757  -10.0738    0.0000 C   0  0
    5.8657  -10.4790    0.0000 N   0  0
    5.8639  -11.2972    0.0000 C   0  0
    6.5722  -11.7100    0.0000 C   0  0
    5.1594  -10.0679    0.0000 C   0  0
    8.6915  -13.7587    0.0000 O   0  0
    7.9837  -14.1672    0.0000 C   0  0
   10.1097  -12.9396    0.0000 N   0  0
   10.8167  -12.5299    0.0000 C   0  0
   11.5218  -12.9378    0.0000 N   0  0
   12.2283  -12.5288    0.0000 C   0  0
   12.2275  -11.7107    0.0000 C   0  0
   11.5142  -11.3034    0.0000 C   0  0
   10.8105  -11.7148    0.0000 N   0  0
   12.9340  -11.3001    0.0000 Cl  0  0
   11.5100  -10.4862    0.0000 O   0  0
   12.2156  -10.0740    0.0000 C   0  0
   12.9259  -10.4814    0.0000 C   0  0
   13.6311  -10.0698    0.0000 C   0  0
   13.6273   -9.2518    0.0000 C   0  0
   12.9126   -8.8470    0.0000 C   0  0
   12.2104   -9.2608    0.0000 C   0  0
   14.3407  -10.4752    0.0000 N   0  0
   15.0465  -10.0633    0.0000 C   0  0
   15.7561  -10.4686    0.0000 C   0  0
   15.0427   -9.2461    0.0000 O   0  0
   16.4619  -10.0568    0.0000 C   0  0
    5.1623   -9.2508    0.0000 C   0  0
    4.4561   -8.8397    0.0000 N   0  0
    5.8715   -8.8447    0.0000 O   0  0
    3.7469   -9.2457    0.0000 C   0  0
    3.0407   -8.8346    0.0000 C   0  0
    2.3312   -9.2410    0.0000 O   0  0
    1.6584   -8.7772    0.0000 C   0  0
    1.6362   -7.9596    0.0000 C   0  0
    0.8533   -7.7262    0.0000 N   0  3
    0.3894   -8.3991    0.0000 O   0  0
    0.8861   -9.0480    0.0000 N   0  0
    2.3213   -6.7211    0.0000 C   0  0
    3.0230   -6.3039    0.0000 C   0  0
    3.0084   -5.4876    0.0000 C   0  0
    2.2928   -5.0913    0.0000 C   0  0
    1.5904   -5.5172    0.0000 C   0  0
    1.6085   -6.3321    0.0000 C   0  0
    0.8461   -6.9090    0.0000 O   0  5
  2  1  2  0
  3  2  2  0
  4  5  2  0
  5  6  1  0
  6  7  2  0
  7  8  1  0
  8  9  2  0
  9  4  1  0
 10 11  1  0
 10 15  1  0
 11 12  1  0
 12 13  1  0
 13 14  1  0
 14 15  1  0
  4 10  1  0
 13 16  1  0
  6 17  1  0
 17 18  1  0
  7 19  1  0
 19 20  1  0
 20 21  2  0
 21 22  1  0
 22 23  2  0
 23 24  1  0
 24 25  2  0
 25 20  1  0
 23 26  1  0
 24 27  1  0
 27 28  1  0
 28 29  2  0
 29 30  1  0
 30 31  2  0
 31 32  1  0
 32 33  2  0
 33 28  1  0
 30 34  1  0
 34 35  1  0
 35 36  1  0
 35 37  2  0
 36 38  2  0
 16 39  1  0
 39 40  1  0
 39 41  2  0
 40 42  1  0
 42 43  1  0
 43 44  1  0
 44 45  1  0
 45 46  1  0
 46 47  2  0
 47 48  1  0
 48 49  1  0
 49 45  2  0
 46  2  1  0
  2 50  1  0
 50 51  2  0
 51 52  1  0
 52 53  2  0
 53 54  1  0
 54 55  2  0
 55 50  1  0
 47 56  1  0
M  CHG  2  47   1  56  -1
M  END
> <chembl_id>
CHEMBL2381514

$$$$

  SciTegic12091615102D

 38 42  0  0  0  0            999 V2000
   -3.8954    7.5022    0.0000 C   0  0
   -5.1917    8.2569    0.0000 C   0  0
   -6.4935    7.5116    0.0000 C   0  0
   -6.4988    6.0116    0.0000 C   0  0
   -5.2025    5.2568    0.0000 C   0  0
   -3.9008    6.0022    0.0000 C   0  0
   -5.2049    3.7560    0.0000 N   0  0
   -3.9067    3.0027    0.0000 C   0  0
   -3.9091    1.5019    0.0000 N   0  0
   -2.8664    3.6008    0.0000 O   0  0
   -2.6111    0.7486    0.0000 C   0  0
   -2.6111   -0.7486    0.0000 C   0  0
   -1.2964   -1.4973    0.0000 C   0  0
   -1.2964    1.4973    0.0000 C   0  0
   -5.1894    9.7577    0.0000 C   0  0
    0.0000    0.7486    0.0000 C   0  0
    0.0000   -0.7486    0.0000 C   0  0
    1.2964   -1.4973    0.0000 N   0  0
    2.5929   -0.7486    0.0000 C   0  0
    2.5929    0.7486    0.0000 N   0  0
    1.2964    1.4973    0.0000 C   0  0
    1.2995    2.9981    0.0000 N   0  0
    2.6003    3.7467    0.0000 C   0  0
    2.6056    5.2467    0.0000 C   0  0
    3.9072    5.9922    0.0000 C   0  0
    5.2037    5.2377    0.0000 C   0  0
    5.1985    3.7377    0.0000 C   0  0
    3.8969    2.9922    0.0000 C   0  0
   -6.4876   10.5109    0.0000 N   0  0
   -6.4875   12.0110    0.0000 C   0  0
   -7.7864   12.7611    0.0000 C   0  0
   -9.0855   12.0113    0.0000 C   0  0
   -9.0857   10.5113    0.0000 C   0  0
   -7.7868    9.7611    0.0000 C   0  0
    6.4956    2.9828    0.0000 C   0  0
    7.5373    3.5786    0.0000 F   0  0
    6.4911    1.7829    0.0000 F   0  0
    7.5325    2.3788    0.0000 F   0  0
  1  2  2  0
  2  3  1  0
  3  4  2  0
  4  5  1  0
  5  6  2  0
  6  1  1  0
  5  7  1  0
  7  8  1  0
  8  9  1  0
  8 10  2  0
  9 11  1  0
 11 12  2  0
 12 13  1  0
 13 17  2  0
 16 14  2  0
 14 11  1  0
  2 15  1  0
 16 17  1  0
 17 18  1  0
 18 19  2  0
 19 20  1  0
 20 21  2  0
 21 16  1  0
 21 22  1  0
 22 23  1  0
 23 24  2  0
 24 25  1  0
 25 26  2  0
 26 27  1  0
 27 28  2  0
 28 23  1  0
 15 29  1  0
 29 30  1  0
 29 34  1  0
 30 31  1  0
 31 32  1  0
 32 33  1  0
 33 34  1  0
 27 35  1  0
 35 36  1  0
 35 37  1  0
 35 38  1  0
M  END
> <chembl_id>
CHEMBL3741473

$$$$

  SciTegic04091414152D

 41 46  0  0  0  0            999 V2000
   13.7117   -8.7397    0.0000 C   0  0
   15.1407   -8.7441    0.0000 C   0  0
   14.4246   -9.1557    0.0000 N   0  0
   13.7133   -7.9183    0.0000 C   0  0
   14.4219   -9.9807    0.0000 C   0  0
   14.4291   -7.5076    0.0000 N   0  0
   14.4286   -6.6826    0.0000 C   0  0
   15.1439   -7.9164    0.0000 C   0  0
   18.7160   -2.5427    0.0000 C   0  0
   15.8622   -2.5574    0.0000 C   0  0
   16.8879   -6.2991    0.0000 C   0  0
   18.7065   -1.7196    0.0000 C   0  0
   13.0028   -6.6807    0.0000 C   0  0
   18.9452   -7.0208    0.0000 O   0  0
   17.7027   -7.7267    0.0000 C   0  0
   15.1493   -3.7975    0.0000 C   0  0
   13.7188   -5.4448    0.0000 C   0  0
   17.2881   -2.5523    0.0000 C   0  0
   16.5784   -3.7933    0.0000 C   0  0
   20.1394   -1.7149    0.0000 C   0  0
   18.7249   -4.1992    0.0000 O   0  0
   14.4344   -4.2094    0.0000 N   0  0
   18.0088   -3.7896    0.0000 C   0  0
   19.4303   -2.9536    0.0000 C   0  0
   16.5776   -2.9665    0.0000 C   0  0
   17.2954   -5.0293    0.0000 C   0  0  2  0  0  0
   16.6312   -5.5150    0.0000 C   0  0
   14.4338   -5.0345    0.0000 C   0  0
   13.7178   -6.2691    0.0000 C   0  0
   15.8641   -4.2103    0.0000 N   0  0
   17.2937   -4.2043    0.0000 N   0  0
   15.1504   -2.9701    0.0000 N   0  0
   15.1472   -5.4437    0.0000 C   0  0
   18.1202   -7.0150    0.0000 C   0  0
   15.1497   -6.2666    0.0000 C   0  0
   19.4226   -1.3046    0.0000 C   0  0
   18.1103   -8.4440    0.0000 C   0  0
   18.0040   -2.9596    0.0000 N   0  0
   20.1401   -2.5403    0.0000 C   0  0
   17.9661   -5.5123    0.0000 C   0  0
   17.7129   -6.2974    0.0000 N   0  0
  4  1  1  0
  3  2  1  0
  7  6  1  0
  3  5  1  0
  6  4  1  0
  1  3  1  0
  6  8  1  0
  2  8  1  0
 36 12  2  0
 39 20  2  0
 34 14  2  0
 34 15  1  0
 29  7  2  0
 10 32  1  0
 16 30  1  0
 41 40  1  0
 25 10  2  0
 35 33  2  0
 40 26  1  0
 29 13  1  0
 30 19  2  0
 11 41  1  0
 28 17  2  0
 17 29  1  0
 33 28  1  0
 41 34  1  0
  7 35  1  0
 25 19  1  0
 38 18  1  0
 19 31  1  0
  9 12  1  0
 32 16  2  0
  9 24  2  0
 15 37  2  0
 22 28  1  0
 23 38  1  0
 16 22  1  0
 38  9  1  0
 23 21  2  0
 26 27  1  0
 24 39  1  0
 26 31  1  6
 31 23  1  0
 20 36  1  0
 27 11  1  0
 18 25  1  0
M  END
> <chembl_id>
CHEMBL3086102

$$$$

  SciTegic12201615542D

 40 45  0  0  0  0            999 V2000
   -3.2783   -6.7973    0.0000 C   0  0
   -4.2796   -7.9153    0.0000 C   0  0
   -5.4542   -7.6697    0.0000 C   0  0
   -3.6526   -5.6572    0.0000 O   0  0
   -1.8093   -7.1045    0.0000 N   0  0
   -0.8080   -5.9865    0.0000 C   0  0
    0.6607   -6.2914    0.0000 C   0  0
    1.6591   -5.1719    0.0000 C   0  0
    1.1889   -3.7475    0.0000 C   0  0
   -0.2799   -3.4426    0.0000 C   0  0
   -1.2783   -4.5621    0.0000 C   0  0
    2.1855   -2.6254    0.0000 C   0  0
    2.5889    0.0182    0.0000 C   0  0
    1.7138   -1.2033    0.0000 N   0  0
    0.2917   -0.7475    0.0000 C   0  0
    0.2917    0.7475    0.0000 C   0  0
    1.7138    1.2033    0.0000 N   0  0
   -1.0028    1.5132    0.0000 C   0  0
   -2.3155    0.7475    0.0000 C   0  0
   -2.3155   -0.7475    0.0000 C   0  0
   -1.0028   -1.5132    0.0000 C   0  0
    4.0896    0.0290    0.0000 C   0  0
    4.9412   -1.1997    0.0000 C   0  0
    4.7258    1.3894    0.0000 N   0  0
    6.4360   -1.0753    0.0000 N   0  0
    7.0757    0.2814    0.0000 C   0  0
    6.2206    1.5138    0.0000 C   0  0
    7.1535    5.2596    0.0000 N   0  0
    8.5113    4.6221    0.0000 N   0  0
    8.3245    3.1338    0.0000 C   0  0
    6.8606    2.8712    0.0000 C   0  0
    6.1276    4.1653    0.0000 C   0  0
    6.0835    9.6250    0.0000 N   0  0
    7.5335    9.2409    0.0000 C   0  0
    7.9258    7.7931    0.0000 C   0  0
    6.8711    6.7336    0.0000 C   0  0
    5.4182    7.1135    0.0000 C   0  0
    5.0259    8.5613    0.0000 C   0  0
    5.7696   10.7832    0.0000 C   0  0
    4.4291   -2.2850    0.0000 N   0  0
  1  2  1  0
  2  3  2  0
  1  4  2  0
  1  5  1  0
  6  7  1  0
  7  8  2  0
  8  9  1  0
  9 10  2  0
 10 11  1  0
  6 11  2  0
 13 14  1  0
 14 15  1  0
 15 16  1  0
 16 17  1  0
 13 17  2  0
 18 19  1  0
 19 20  2  0
 20 21  1  0
 15 21  2  0
 16 18  2  0
 22 23  1  0
 22 24  2  0
 23 25  2  0
 25 26  1  0
 26 27  2  0
 24 27  1  0
 28 29  1  0
 29 30  2  0
 30 31  1  0
 31 32  2  0
 28 32  1  0
 33 34  1  0
 34 35  1  0
 35 36  1  0
 36 37  1  0
 37 38  1  0
 33 38  1  0
 33 39  1  0
 28 36  1  0
 27 31  1  0
 23 40  1  0
 13 22  1  0
 12 14  1  0
  9 12  1  0
  5  6  1  0
M  END
> <chembl_id>
CHEMBL3813995

$$$$

  SciTegic12131615502D

 41 46  0  0  0  0            999 V2000
    3.7345    1.5436    0.0000 C   0  0
    4.8300    2.8133    0.0000 C   0  0
    3.7345    0.0000    0.0000 C   0  0
    6.1246    2.2656    0.0000 C   0  0
    5.2034   -0.5726    0.0000 C   0  0
    6.1246    0.5726    0.0000 C   0  0
    2.5893   -0.5726    0.0000 C   0  0
    3.5602    0.5726    0.0000 C   0  0
    3.5602    2.2656    0.0000 C   0  0
    5.0291    0.0249    0.0000 C   0  0
    2.1833    1.1556    0.0000 C   0  0
   -0.5794    2.3239    0.0000 C   0  0
   -1.9600    2.9103    0.0000 C   0  0
   -3.1582    2.0079    0.0000 C   0  0
   -2.9757    0.5191    0.0000 C   0  0
   -1.5951   -0.0674    0.0000 C   0  0
   -0.3969    0.8350    0.0000 C   0  0
   -4.5407    2.5919    0.0000 N   0  0
   -8.1338   -0.1102    0.0000 N   0  0
   -6.7458   -0.7121    0.0000 C   0  0
   -5.5484    0.1869    0.0000 N   0  0
   -5.7383    1.6872    0.0000 C   0  0
   -7.1162    2.2750    0.0000 C   0  0
   -7.2958    3.7613    0.0000 C   0  0
   -8.6729    4.3485    0.0000 C   0  0
   -9.8703    3.4495    0.0000 C   0  0
   -9.6906    1.9633    0.0000 C   0  0
   -8.3135    1.3761    0.0000 C   0  0
   -8.8501    5.8389    0.0000 O   0  0
   -7.6486    6.7383    0.0000 C   0  0
   -7.8258    8.2286    0.0000 C   0  0
  -11.2520    4.0356    0.0000 O   0  0
  -12.4509    3.1328    0.0000 C   0  0
    0.9857    0.2510    0.0000 N   0  0
   -2.1059    4.1014    0.0000 C   0  0
   -6.6244    9.1280    0.0000 O   0  0
   -6.7660   10.3196    0.0000 C   0  0
  -13.8326    3.7188    0.0000 C   0  0
  -15.0315    2.8160    0.0000 O   0  0
  -16.1363    3.2846    0.0000 C   0  0
    2.0353    2.3464    0.0000 O   0  0
  1  2  1  0
  1  3  1  0
  2  4  1  0
  3  5  1  0
  4  6  1  0
  5  6  1  0
  7  8  1  0
  3  7  1  0
  2  9  1  0
  6 10  1  0
 10  8  1  0
  8  9  1  0
 11  8  1  0
 12 13  1  0
 13 14  2  0
 14 15  1  0
 15 16  2  0
 16 17  1  0
 12 17  2  0
 19 20  1  0
 20 21  2  0
 21 22  1  0
 22 23  2  0
 23 24  1  0
 24 25  2  0
 25 26  1  0
 26 27  2  0
 27 28  1  0
 19 28  2  0
 23 28  1  0
 30 31  1  0
 29 30  1  0
 25 29  1  0
 32 33  1  0
 26 32  1  0
 18 22  1  0
 14 18  1  0
 17 34  1  0
 34 11  1  0
 13 35  1  0
 31 36  1  0
 36 37  1  0
 33 38  1  0
 38 39  1  0
 39 40  1  0
 11 41  2  0
M  END
> <chembl_id>
CHEMBL3764312

$$$$

  SciTegic12201611502D

 27 30  0  0  0  0            999 V2000
   -2.1332   -2.2973    0.0000 N   0  0
   -3.4277   -1.5498    0.0000 C   0  0
   -3.4277    0.0000    0.0000 N   0  0
   -2.1332    0.6928    0.0000 C   0  0
   -0.8205    0.0000    0.0000 C   0  0
    0.4558    0.6928    0.0000 C   0  0
    1.7503    0.0000    0.0000 C   0  0
    1.7503   -1.5498    0.0000 C   0  0
    0.4558   -2.2973    0.0000 C   0  0
   -0.8205   -1.5498    0.0000 C   0  0
    0.4558    2.1879    0.0000 O   0  0
    3.0631    0.6928    0.0000 O   0  0
    3.0631    2.1879    0.0000 C   0  0
    1.7503    2.9537    0.0000 C   0  0
   -2.1454    2.1947    0.0000 N   0  0
   -3.4508    2.9353    0.0000 C   0  0
   -3.4653    4.4352    0.0000 C   0  0
   -4.7714    5.1728    0.0000 C   0  0
   -6.0632    4.4104    0.0000 C   0  0
   -6.0489    2.9104    0.0000 C   0  0
   -4.7427    2.1729    0.0000 C   0  0
   -4.7889    6.6735    0.0000 N   0  3
   -5.8347    7.2620    0.0000 O   0  0
   -3.7565    7.2852    0.0000 O   0  5
    3.0410   -2.3153    0.0000 O   0  0
    3.0239   -3.8160    0.0000 C   0  0
    4.0559   -4.4284    0.0000 C   0  0
  1  2  1  0
  2  3  2  0
  3  4  1  0
  4  5  2  0
  5  6  1  0
  6  7  2  0
  7  8  1  0
  8  9  2  0
  9 10  1  0
  1 10  2  0
  5 10  1  0
 12 13  1  0
 13 14  1  0
 11 14  1  0
  6 11  1  0
  7 12  1  0
  4 15  1  0
 16 17  1  0
 17 18  2  0
 18 19  1  0
 19 20  2  0
 20 21  1  0
 16 21  2  0
 22 23  2  0
 22 24  1  0
 18 22  1  0
 15 16  1  0
 26 27  1  0
 25 26  1  0
  8 25  1  0
M  CHG  2  22   1  24  -1
M  END
> <chembl_id>
CHEMBL3805238

$$$$

  SciTegic10311316262D

 56 61  0  0  0  0            999 V2000
   21.2594  -26.8683    0.0000 O   0  0
   20.4422  -26.8683    0.0000 S   0  0
   20.8508  -27.5760    0.0000 O   0  0
   20.4374  -28.5729    0.0000 O   0  0
   19.7645  -28.1091    0.0000 C   0  0
   19.7424  -27.2916    0.0000 C   0  0
   18.9594  -27.0581    0.0000 N   0  3
   18.4956  -27.7310    0.0000 O   0  0
   18.9922  -28.3799    0.0000 N   0  0
   20.4275  -26.0530    0.0000 C   0  0
   21.1292  -25.6359    0.0000 C   0  0
   21.1146  -24.8196    0.0000 C   0  0
   20.3989  -24.4232    0.0000 C   0  0
   19.6966  -24.8492    0.0000 C   0  0
   19.7147  -25.6640    0.0000 C   0  0
   26.0909  -31.0491    0.0000 C   0  0
   26.0898  -31.8686    0.0000 C   0  0
   26.7978  -32.2776    0.0000 C   0  0
   27.5075  -31.8682    0.0000 C   0  0
   27.5047  -31.0455    0.0000 C   0  0
   26.7960  -30.6402    0.0000 C   0  0
   25.3838  -30.6363    0.0000 N   0  0
   25.3856  -29.8182    0.0000 C   0  0
   24.6819  -29.4098    0.0000 C   0  0
   23.9719  -29.8151    0.0000 N   0  0
   23.9701  -30.6332    0.0000 C   0  0
   24.6783  -31.0461    0.0000 C   0  0
   23.2656  -29.4040    0.0000 C   0  0
   26.7976  -33.0948    0.0000 O   0  0
   26.0898  -33.5032    0.0000 C   0  0
   28.2158  -32.2757    0.0000 N   0  0
   28.9229  -31.8659    0.0000 C   0  0
   29.6279  -32.2739    0.0000 N   0  0
   30.3345  -31.8648    0.0000 C   0  0
   30.3337  -31.0468    0.0000 C   0  0
   29.6203  -30.6395    0.0000 C   0  0
   28.9167  -31.0508    0.0000 N   0  0
   31.0402  -30.6361    0.0000 Cl  0  0
   29.6162  -29.8223    0.0000 O   0  0
   30.3218  -29.4101    0.0000 C   0  0
   31.0321  -29.8174    0.0000 C   0  0
   31.7372  -29.4059    0.0000 C   0  0
   31.7335  -28.5879    0.0000 C   0  0
   31.0187  -28.1831    0.0000 C   0  0
   30.3165  -28.5969    0.0000 C   0  0
   32.4468  -29.8112    0.0000 N   0  0
   33.1526  -29.3994    0.0000 C   0  0
   33.8622  -29.8047    0.0000 C   0  0
   33.1488  -28.5822    0.0000 O   0  0
   34.5680  -29.3929    0.0000 C   0  0
   23.2685  -28.5868    0.0000 C   0  0
   22.5622  -28.1757    0.0000 O   0  0
   23.9776  -28.1807    0.0000 O   0  0
   21.8531  -28.5818    0.0000 C   0  0
   21.1468  -28.1707    0.0000 C   0  0
   18.7417  -26.2657    0.0000 O   0  5
  2  1  2  0
  3  2  2  0
  4  5  1  0
  5  6  1  0
  6  7  2  0
  7  8  1  0
  8  9  1  0
  9  5  2  0
  6  2  1  0
  2 10  1  0
 10 11  2  0
 11 12  1  0
 12 13  2  0
 13 14  1  0
 14 15  2  0
 15 10  1  0
 16 17  2  0
 17 18  1  0
 18 19  2  0
 19 20  1  0
 20 21  2  0
 21 16  1  0
 22 23  1  0
 22 27  1  0
 23 24  1  0
 24 25  1  0
 25 26  1  0
 26 27  1  0
 16 22  1  0
 25 28  1  0
 18 29  1  0
 29 30  1  0
 19 31  1  0
 31 32  1  0
 32 33  2  0
 33 34  1  0
 34 35  2  0
 35 36  1  0
 36 37  2  0
 37 32  1  0
 35 38  1  0
 36 39  1  0
 39 40  1  0
 40 41  2  0
 41 42  1  0
 42 43  2  0
 43 44  1  0
 44 45  2  0
 45 40  1  0
 42 46  1  0
 46 47  1  0
 47 48  1  0
 47 49  2  0
 48 50  2  0
 28 51  1  0
 51 52  1  0
 51 53  2  0
 52 54  1  0
 54 55  1  0
 55  4  1  0
  7 56  1  0
M  CHG  2   7   1  56  -1
M  END
> <chembl_id>
CHEMBL2381506

$$$$

  SciTegic09261414462D

 32 35  0  0  0  0            999 V2000
   19.6082  -23.0367    0.0000 N   0  0
   20.3179  -22.6273    0.0000 C   0  0
   20.3150  -21.8046    0.0000 N   0  0
   19.6064  -21.3994    0.0000 C   0  0
   18.9001  -22.6278    0.0000 C   0  0
   18.9014  -21.8113    0.0000 C   0  0
   18.1252  -21.5577    0.0000 C   0  0
   17.6442  -22.2176    0.0000 C   0  0
   18.1232  -22.8789    0.0000 S   0  0
   19.6026  -20.5822    0.0000 N   0  0
   20.3085  -20.1703    0.0000 C   0  0
   21.0159  -20.5805    0.0000 C   0  0
   21.7212  -20.1693    0.0000 C   0  0
   21.7179  -19.3512    0.0000 C   0  0
   21.0033  -18.9461    0.0000 C   0  0
   20.3009  -19.3596    0.0000 C   0  0
   16.8270  -22.2165    0.0000 N   0  0
   16.4194  -21.5082    0.0000 C   0  0
   15.6022  -21.5070    0.0000 C   0  0
   16.8290  -20.8010    0.0000 O   0  0
   22.4231  -18.9385    0.0000 F   0  0
   22.4306  -20.5750    0.0000 Cl  0  0
   15.1947  -20.7987    0.0000 C   0  0
   14.3775  -20.7975    0.0000 C   0  0
   13.9699  -20.0892    0.0000 N   0  0
   14.3795  -19.3821    0.0000 C   0  0
   13.9720  -18.6738    0.0000 C   0  0
   14.3845  -17.9696    0.0000 N   0  0
   13.9776  -17.2618    0.0000 C   0  0
   13.1596  -17.2602    0.0000 C   0  0
   12.7501  -17.9723    0.0000 C   0  0
   13.1593  -18.6772    0.0000 N   0  0
  5  1  1  0
  1  2  2  0
  2  3  1  0
  3  4  2  0
  4  6  1  0
  5  6  2  0
  6  7  1  0
  7  8  2  0
  8  9  1  0
  9  5  1  0
  4 10  1  0
 10 11  1  0
 11 12  2  0
 12 13  1  0
 13 14  2  0
 14 15  1  0
 15 16  2  0
 16 11  1  0
  8 17  1  0
 17 18  1  0
 18 19  1  0
 18 20  2  0
 14 21  1  0
 13 22  1  0
 19 23  2  0
 23 24  1  0
 24 25  1  0
 25 26  1  0
 26 27  1  0
 27 28  2  0
 28 29  1  0
 29 30  2  0
 30 31  1  0
 31 32  2  0
 32 27  1  0
M  END
> <chembl_id>
CHEMBL3233776

$$$$

  Mrv0541 04051115152D          

 21 24  0  0  0  0            999 V2000
   -0.2798   -1.3054    0.0000 C   0  0  0  0  0  0  0  0  0  0  0  0
    0.5272   -1.1339    0.0000 N   0  0  0  0  0  0  0  0  0  0  0  0
   -0.8318   -0.6923    0.0000 C   0  0  0  0  0  0  0  0  0  0  0  0
   -0.5347   -2.0901    0.0000 N   0  0  0  0  0  0  0  0  0  0  0  0
   -1.3417   -2.2616    0.0000 C   0  0  0  0  0  0  0  0  0  0  0  0
   -1.8937   -1.6485    0.0000 N   0  0  0  0  0  0  0  0  0  0  0  0
   -1.6388   -0.8639    0.0000 C   0  0  0  0  0  0  0  0  0  0  0  0
   -2.0513   -0.1494    0.0000 N   0  0  0  0  0  0  0  0  0  0  0  0
   -2.8718   -0.0632    0.0000 C   0  0  0  0  0  0  0  0  0  0  0  0
   -1.4993    0.4637    0.0000 N   0  0  0  0  0  0  0  0  0  0  0  0
   -0.7456    0.1281    0.0000 C   0  0  0  0  0  0  0  0  0  0  0  0
   -0.0311    0.5406    0.0000 C   0  0  0  0  0  0  0  0  0  0  0  0
    0.6834    0.1281    0.0000 C   0  0  0  0  0  0  0  0  0  0  0  0
   -0.0311    1.3656    0.0000 C   0  0  0  0  0  0  0  0  0  0  0  0
    0.6834    1.7781    0.0000 C   0  0  0  0  0  0  0  0  0  0  0  0
    1.3978    1.3656    0.0000 C   0  0  0  0  0  0  0  0  0  0  0  0
    1.3978    0.5406    0.0000 C   0  0  0  0  0  0  0  0  0  0  0  0
    2.1123    1.7781    0.0000 C   0  0  0  0  0  0  0  0  0  0  0  0
    2.8268    1.3656    0.0000 C   0  0  0  0  0  0  0  0  0  0  0  0
    2.8268    0.5406    0.0000 C   0  0  0  0  0  0  0  0  0  0  0  0
    2.1123    0.1281    0.0000 C   0  0  0  0  0  0  0  0  0  0  0  0
  5  4  2  0  0  0  0
  1  4  1  0  0  0  0
  5  6  1  0  0  0  0
  1  2  1  0  0  0  0
  3  1  2  0  0  0  0
  7  6  2  0  0  0  0
 14 15  2  0  0  0  0
 15 16  1  0  0  0  0
 14 12  1  0  0  0  0
  7  3  1  0  0  0  0
  3 11  1  0  0  0  0
  7  8  1  0  0  0  0
 16 18  2  0  0  0  0
 18 19  1  0  0  0  0
 16 17  1  0  0  0  0
  9  8  1  0  0  0  0
 10  8  1  0  0  0  0
 12 11  1  0  0  0  0
 11 10  2  0  0  0  0
 12 13  2  0  0  0  0
 19 20  2  0  0  0  0
 13 17  1  0  0  0  0
 17 21  2  0  0  0  0
 21 20  1  0  0  0  0
M  END
> <chembl_id>
CHEMBL1234815

$$$$

  SciTegic12201611502D

 29 32  0  0  0  0            999 V2000
   -2.1332   -2.2973    0.0000 N   0  0
   -3.4277   -1.5498    0.0000 C   0  0
   -3.4277    0.0000    0.0000 N   0  0
   -2.1332    0.6928    0.0000 C   0  0
   -0.8205    0.0000    0.0000 C   0  0
    0.4558    0.6928    0.0000 C   0  0
    1.7503    0.0000    0.0000 C   0  0
    1.7503   -1.5498    0.0000 C   0  0
    0.4558   -2.2973    0.0000 C   0  0
   -0.8205   -1.5498    0.0000 C   0  0
    0.4558    2.1879    0.0000 O   0  0
    3.0631    0.6928    0.0000 O   0  0
    3.0631    2.1879    0.0000 C   0  0
    1.7503    2.9537    0.0000 C   0  0
   -2.1454    2.1947    0.0000 N   0  0
    3.0410   -2.3153    0.0000 O   0  0
    3.0239   -3.8160    0.0000 C   0  0
    4.0559   -4.4284    0.0000 C   0  0
    1.9778   -4.4039    0.0000 C   0  0
   -3.4508    2.9353    0.0000 C   0  0
   -3.4653    4.4352    0.0000 C   0  0
   -4.7714    5.1728    0.0000 C   0  0
   -6.0632    4.4104    0.0000 C   0  0
   -6.0489    2.9104    0.0000 C   0  0
   -4.7427    2.1729    0.0000 C   0  0
   -4.7827    6.6736    0.0000 N   0  3
   -3.7484    7.2820    0.0000 O   0  0
   -5.8266    7.2654    0.0000 O   0  5
   -7.1082    5.0004    0.0000 F   0  0
  1  2  1  0
  2  3  2  0
  3  4  1  0
  4  5  2  0
  5  6  1  0
  6  7  2  0
  7  8  1  0
  8  9  2  0
  9 10  1  0
  1 10  2  0
  5 10  1  0
 12 13  1  0
 13 14  1  0
 11 14  1  0
  6 11  1  0
  7 12  1  0
  4 15  1  0
 17 18  1  0
 17 19  1  0
 16 17  1  0
  8 16  1  0
 20 21  1  0
 21 22  2  0
 22 23  1  0
 23 24  2  0
 24 25  1  0
 20 25  2  0
 26 27  2  0
 26 28  1  0
 22 26  1  0
 23 29  1  0
 15 20  1  0
M  CHG  2  26   1  28  -1
M  END
> <chembl_id>
CHEMBL3805383

$$$$

  SciTegic12201615532D

 36 40  0  0  0  0            999 V2000
    3.6552   -2.9294    0.0000 C   0  0
    2.1855   -2.6254    0.0000 C   0  0
    2.5889    0.0182    0.0000 C   0  0
    1.7138   -1.2033    0.0000 N   0  0
    0.2917   -0.7475    0.0000 C   0  0
    0.2917    0.7475    0.0000 C   0  0
    1.7138    1.2033    0.0000 N   0  0
   -1.0028    1.5132    0.0000 C   0  0
   -2.3155    0.7475    0.0000 C   0  0
   -2.3155   -0.7475    0.0000 C   0  0
   -1.0028   -1.5132    0.0000 C   0  0
    4.0896    0.0290    0.0000 C   0  0
    4.9234    1.2700    0.0000 C   0  0
    4.7453   -1.3220    0.0000 N   0  0
    6.4199    1.1671    0.0000 N   0  0
    7.0791   -0.1803    0.0000 C   0  0
    6.2418   -1.4248    0.0000 C   0  0
    8.5825   -4.4945    0.0000 N   0  0
    7.2361   -5.1558    0.0000 N   0  0
    6.1911   -4.0797    0.0000 C   0  0
    6.9013   -2.7729    0.0000 C   0  0
    8.3696   -3.0096    0.0000 C   0  0
   12.6588   -6.3879    0.0000 N   0  0
   11.4526   -7.2796    0.0000 C   0  0
   10.0773   -6.6809    0.0000 C   0  0
    9.9095   -5.1953    0.0000 C   0  0
   11.1143   -4.2988    0.0000 C   0  0
   12.4896   -4.8975    0.0000 C   0  0
   13.7590   -6.8669    0.0000 C   0  0
    4.3957    2.3477    0.0000 N   0  0
    4.1277   -4.3539    0.0000 C   0  0
    5.5974   -4.6579    0.0000 N   0  0
    6.0699   -6.0824    0.0000 C   0  0
    7.5396   -6.3865    0.0000 C   0  0
    5.2721   -6.9788    0.0000 O   0  0
    7.9173   -7.5254    0.0000 C   0  0
  1  2  1  0
  3  4  1  0
  4  5  1  0
  5  6  1  0
  6  7  1  0
  3  7  2  0
  8  9  1  0
  9 10  2  0
 10 11  1  0
  5 11  2  0
  6  8  2  0
 12 13  1  0
 12 14  2  0
 13 15  2  0
 15 16  1  0
 16 17  2  0
 14 17  1  0
 18 19  1  0
 19 20  2  0
 20 21  1  0
 21 22  2  0
 18 22  1  0
 23 24  1  0
 24 25  1  0
 25 26  1  0
 26 27  1  0
 27 28  1  0
 23 28  1  0
 23 29  1  0
 18 26  1  0
 17 21  1  0
 13 30  1  0
  3 12  1  0
  2  4  1  0
  1 31  1  0
 31 32  1  0
 32 33  1  0
 33 34  1  0
 33 35  2  0
 34 36  2  0
M  END
> <chembl_id>
CHEMBL3814878

$$$$

  SciTegic10311316242D

 35 38  0  0  0  0            999 V2000
   12.5975   -1.3692    0.0000 C   0  0
   12.5975   -2.1939    0.0000 C   0  0
   13.3086   -2.6041    0.0000 C   0  0
   14.0197   -2.1939    0.0000 C   0  0
   14.0197   -1.3692    0.0000 C   0  0
   13.3086   -0.9590    0.0000 C   0  0
   13.3086   -0.1358    0.0000 F   0  0
   13.3086   -3.4273    0.0000 Cl  0  0
   11.8876   -0.9597    0.0000 Cl  0  0
   11.8876   -2.6034    0.0000 C   0  0  2  0  0  0
   11.8876   -3.4266    0.0000 O   0  0
   11.1737   -3.8361    0.0000 C   0  0
   11.1737   -2.1939    0.0000 C   0  0
   10.4626   -3.4258    0.0000 C   0  0
    9.7473   -3.8361    0.0000 C   0  0
    9.7473   -4.6607    0.0000 C   0  0
   10.4626   -5.0709    0.0000 N   0  0
   11.1737   -4.6607    0.0000 C   0  0
    9.0375   -3.4266    0.0000 C   0  0
    9.0375   -5.0702    0.0000 O   0  0
    8.3235   -3.8361    0.0000 N   0  0
    9.0375   -2.6034    0.0000 O   0  0
    7.6137   -3.4266    0.0000 C   0  0
    7.6137   -2.6019    0.0000 C   0  0
    6.9025   -2.1917    0.0000 C   0  0
    6.1873   -2.6019    0.0000 C   0  0
    6.1873   -3.4266    0.0000 C   0  0
    6.9025   -3.8368    0.0000 C   0  0
    5.4775   -2.1924    0.0000 N   0  0
    5.4775   -1.3678    0.0000 C   0  0
    4.7622   -0.9575    0.0000 C   0  0
    4.0511   -1.3678    0.0000 N   0  0
    4.0511   -2.1924    0.0000 C   0  0
    4.7622   -2.6027    0.0000 C   0  0
    3.3372   -0.9583    0.0000 C   0  0
  1  2  2  0
  2  3  1  0
  3  4  2  0
  4  5  1  0
  5  6  2  0
  6  1  1  0
  6  7  1  0
  3  8  1  0
  1  9  1  0
  2 10  1  0
 10 11  1  0
 11 12  1  0
 10 13  1  6
 12 14  1  0
 14 15  2  0
 15 16  1  0
 16 17  1  0
 17 18  1  0
 18 12  2  0
 15 19  1  0
 16 20  2  0
 19 21  1  0
 19 22  2  0
 21 23  1  0
 23 24  2  0
 24 25  1  0
 25 26  2  0
 26 27  1  0
 27 28  2  0
 28 23  1  0
 26 29  1  0
 29 30  1  0
 30 31  1  0
 31 32  1  0
 32 33  1  0
 33 34  1  0
 34 29  1  0
 32 35  1  0
M  END
> <chembl_id>
CHEMBL2376650

$$$$

  SciTegic05221516342D

 37 41  0  0  0  0            999 V2000
   30.2677  -22.1879    0.0000 C   0  0
   30.2665  -23.0075    0.0000 C   0  0
   30.9746  -23.4164    0.0000 N   0  0
   31.6842  -23.0070    0.0000 C   0  0
   31.6814  -22.1843    0.0000 N   0  0
   30.9728  -21.7791    0.0000 C   0  0
   30.9709  -20.9620    0.0000 C   0  0
   31.6305  -20.4796    0.0000 C   0  0
   31.3757  -19.7032    0.0000 N   0  0
   30.3084  -20.4836    0.0000 C   0  0
   30.5552  -19.7025    0.0000 N   0  0
   30.0052  -19.1015    0.0000 C   0  0
   29.2054  -19.2759    0.0000 C   0  0
   28.9585  -20.0571    0.0000 C   0  0
   29.5115  -20.6637    0.0000 C   0  0
   29.5599  -21.7795    0.0000 Cl  0  0
   32.3926  -23.4145    0.0000 N   0  0
   33.0997  -23.0048    0.0000 C   0  0
   33.8047  -23.4127    0.0000 C   0  0
   34.5113  -23.0037    0.0000 C   0  0
   34.5104  -22.1856    0.0000 C   0  0
   33.7971  -21.7783    0.0000 C   0  0
   33.0934  -22.1897    0.0000 C   0  0
   33.8048  -24.2299    0.0000 O   0  0
   33.0971  -24.6386    0.0000 C   0  0
   33.7929  -20.9611    0.0000 N   0  0
   33.0831  -20.5561    0.0000 C   0  0
   33.0790  -19.7390    0.0000 C   0  0
   32.3775  -20.9683    0.0000 O   0  0
   33.7846  -19.3268    0.0000 C   0  0
   35.2169  -21.7750    0.0000 N   0  0
   36.0018  -21.9868    0.0000 C   0  0
   36.2110  -21.1968    0.0000 C   0  0
   35.4211  -20.9876    0.0000 C   0  0
   36.9175  -20.7862    0.0000 N   0  0
   37.6264  -21.1927    0.0000 C   0  0
   36.9152  -19.9690    0.0000 C   0  0
  1  2  2  0
  2  3  1  0
  3  4  2  0
  4  5  1  0
  5  6  2  0
  6  1  1  0
  7  8  1  0
  8  9  2  0
  9 11  1  0
 10  7  2  0
  6  7  1  0
 10 11  1  0
 10 15  1  0
 11 12  1  0
 12 13  2  0
 13 14  1  0
 14 15  2  0
  1 16  1  0
  4 17  1  0
 17 18  1  0
 18 19  2  0
 19 20  1  0
 20 21  2  0
 21 22  1  0
 22 23  2  0
 23 18  1  0
 19 24  1  0
 24 25  1  0
 22 26  1  0
 26 27  1  0
 27 28  1  0
 27 29  2  0
 28 30  2  0
 21 31  1  0
 31 32  1  0
 32 33  1  0
 33 34  1  0
 34 31  1  0
 33 35  1  0
 35 36  1  0
 35 37  1  0
M  END
> <chembl_id>
CHEMBL3353405

$$$$

  SciTegic08011209522D

 25 27  0  0  0  0            999 V2000
   19.8444   -5.6791    0.0000 N   0  0
   19.8432   -6.5065    0.0000 C   0  0
   20.5581   -6.9194    0.0000 N   0  0
   20.5563   -5.2664    0.0000 C   0  0
   21.2716   -5.6755    0.0000 C   0  0
   21.2751   -6.5086    0.0000 C   0  0
   21.9942   -6.9199    0.0000 N   0  0
   22.7146   -6.5027    0.0000 C   0  0
   22.7112   -5.6696    0.0000 N   0  0
   21.9874   -5.2537    0.0000 C   0  0
   21.9982   -7.7414    0.0000 C   0  0
   21.2832   -8.1553    0.0000 C   0  0
   21.2851   -8.9795    0.0000 C   0  0
   22.0013   -9.3909    0.0000 C   0  0
   22.7170   -8.9720    0.0000 C   0  0
   22.7116   -8.1491    0.0000 C   0  0
   19.1284   -6.9184    0.0000 N   0  0
   23.4302   -6.9132    0.0000 O   0  0
   23.4340   -9.3800    0.0000 N   0  0
   23.4392  -10.2050    0.0000 C   0  0
   24.1562  -10.6130    0.0000 C   0  0
   22.7273  -10.6220    0.0000 O   0  0
   24.1614  -11.4380    0.0000 C   0  0
   23.4244   -5.2549    0.0000 C   0  0
   18.4143   -6.5054    0.0000 C   0  0
  2  3  1  0
 12 13  1  0
  3  6  2  0
 13 14  2  0
  1  2  2  0
 14 15  1  0
  5  4  2  0
 15 16  2  0
 16 11  1  0
  7 11  1  0
  4  1  1  0
  2 17  1  0
  5 10  1  0
  8 18  2  0
  6  7  1  0
 15 19  1  0
  7  8  1  0
 19 20  1  0
  8  9  1  0
 20 21  1  0
  9 10  1  0
 20 22  2  0
  5  6  1  0
 21 23  2  0
  9 24  1  0
 11 12  2  0
 17 25  1  0
M  END
> <chembl_id>
CHEMBL2029427

$$$$

  SciTegic09261414462D

 32 35  0  0  0  0            999 V2000
    8.5431   -6.0573    0.0000 N   0  0
    9.2528   -5.6479    0.0000 C   0  0
    9.2499   -4.8252    0.0000 N   0  0
    8.5413   -4.4200    0.0000 C   0  0
    7.8350   -5.6484    0.0000 C   0  0
    7.8363   -4.8318    0.0000 C   0  0
    7.0601   -4.5783    0.0000 C   0  0
    6.5791   -5.2382    0.0000 C   0  0
    7.0581   -5.8994    0.0000 S   0  0
    8.5375   -3.6028    0.0000 N   0  0
    9.2434   -3.1909    0.0000 C   0  0
    9.9508   -3.6011    0.0000 C   0  0
   10.6561   -3.1899    0.0000 C   0  0
   10.6528   -2.3718    0.0000 C   0  0
    9.9382   -1.9667    0.0000 C   0  0
    9.2358   -2.3802    0.0000 C   0  0
    5.7619   -5.2370    0.0000 N   0  0
    5.3543   -4.5287    0.0000 C   0  0
    4.5371   -4.5275    0.0000 C   0  0
    5.7639   -3.8216    0.0000 O   0  0
   11.3580   -1.9590    0.0000 F   0  0
   11.3655   -3.5956    0.0000 Cl  0  0
    4.1296   -3.8192    0.0000 C   0  0
    3.3124   -3.8181    0.0000 C   0  0
    2.9048   -3.1098    0.0000 N   0  0
    3.3171   -2.4003    0.0000 C   0  0
    2.9130   -1.6942    0.0000 C   0  0
    2.0955   -1.6887    0.0000 N   0  0
    1.6837   -2.3957    0.0000 C   0  0
    2.0894   -3.1081    0.0000 C   0  0
    1.6906   -0.9789    0.0000 C   0  0
    2.1029   -0.2797    0.0000 C   0  0
  5  1  1  0
  1  2  2  0
  2  3  1  0
  3  4  2  0
  4  6  1  0
  5  6  2  0
  6  7  1  0
  7  8  2  0
  8  9  1  0
  9  5  1  0
  4 10  1  0
 10 11  1  0
 11 12  2  0
 12 13  1  0
 13 14  2  0
 14 15  1  0
 15 16  2  0
 16 11  1  0
  8 17  1  0
 17 18  1  0
 18 19  1  0
 18 20  2  0
 14 21  1  0
 13 22  1  0
 19 23  2  0
 23 24  1  0
 24 25  1  0
 25 26  1  0
 25 30  1  0
 26 27  1  0
 27 28  1  0
 28 29  1  0
 29 30  1  0
 28 31  1  0
 31 32  1  0
M  END
> <chembl_id>
CHEMBL3233790

$$$$

  SciTegic12201610342D

 41 44  0  0  0  0            999 V2000
    2.5951   -3.0039    0.0000 C   0  0
    3.8933   -3.7570    0.0000 C   0  0
    3.8916   -4.9570    0.0000 C   0  0
    1.5548   -3.6021    0.0000 O   0  0
    2.5973   -1.5031    0.0000 N   0  0
    1.2990   -0.7500    0.0000 C   0  0
    1.2990    0.7500    0.0000 C   0  0
    0.0000    1.5000    0.0000 C   0  0
   -1.2990    0.7500    0.0000 C   0  0
   -1.2990   -0.7500    0.0000 C   0  0
    0.0000   -1.5000    0.0000 C   0  0
   -0.0031    3.0008    0.0000 O   0  0
   -3.9021    3.7404    0.0000 C   0  0
   -2.6005    2.9949    0.0000 N   0  0
   -1.3039    3.7494    0.0000 C   0  0
   -1.3092    5.2494    0.0000 C   0  0
   -2.6108    5.9949    0.0000 C   0  0
   -3.9073    5.2404    0.0000 N   0  0
   -0.0136    6.0070    0.0000 S   0  0
   -0.0195    7.2070    0.0000 C   0  0
   -5.2008    2.9882    0.0000 N   0  0
   -6.5021    3.7360    0.0000 C   0  0
   -7.8012    2.9860    0.0000 C   0  0
   -9.1002    3.7360    0.0000 C   0  0
   -9.1002    5.2360    0.0000 C   0  0
   -7.8012    5.9860    0.0000 C   0  0
   -6.5021    5.2360    0.0000 C   0  0
  -10.3999    5.9864    0.0000 N   0  0
  -11.7002    5.2385    0.0000 C   0  0
  -12.9981    5.9906    0.0000 C   0  0
  -12.9957    7.4906    0.0000 N   0  0
  -11.6955    8.2385    0.0000 C   0  0
  -10.3976    7.4864    0.0000 C   0  0
  -14.2927    8.2457    0.0000 C   0  0
  -14.2882    9.7465    0.0000 C   0  0
  -15.3339    7.6492    0.0000 O   0  0
   -7.8043    1.4852    0.0000 O   0  0
   -8.8444    0.8867    0.0000 C   0  0
  -15.3252   10.3503    0.0000 C   0  0
  -14.2840   10.9465    0.0000 C   0  0
  -13.2470   10.3431    0.0000 C   0  0
  1  2  1  0
  2  3  2  0
  1  4  2  0
  1  5  1  0
  6  7  1  0
  7  8  2  0
  8  9  1  0
  9 10  2  0
 10 11  1  0
  6 11  2  0
 13 14  1  0
 14 15  2  0
 15 16  1  0
 16 17  2  0
 17 18  1  0
 13 18  2  0
 19 20  1  0
 16 19  1  0
 22 23  1  0
 23 24  2  0
 24 25  1  0
 25 26  2  0
 26 27  1  0
 22 27  2  0
 28 29  1  0
 29 30  1  0
 30 31  1  0
 31 32  1  0
 32 33  1  0
 28 33  1  0
 34 35  1  0
 34 36  2  0
 31 34  1  0
 25 28  1  0
 37 38  1  0
 23 37  1  0
 21 22  1  0
 13 21  1  0
 12 15  1  0
  8 12  1  0
  5  6  1  0
 35 39  1  0
 35 40  1  0
 35 41  1  0
M  END
> <chembl_id>
CHEMBL3799138

$$$$

  SciTegic10311316212D

 47 52  0  0  0  0            999 V2000
    1.6014   -8.5062    0.0000 O   0  0
    2.0141   -9.2161    0.0000 S   0  0
    2.4225   -8.5037    0.0000 O   0  0
   -6.4907  -10.6523    0.0000 C   0  0
   -6.4896  -11.4719    0.0000 C   0  0
   -5.7861  -11.8808    0.0000 C   0  0
   -5.0760  -11.4714    0.0000 C   0  0
   -5.0732  -10.6487    0.0000 C   0  0
   -5.7843  -10.2435    0.0000 C   0  0
   -7.1989  -10.2395    0.0000 N   0  0
   -7.2007   -9.4214    0.0000 C   0  0
   -7.9002   -9.0131    0.0000 C   0  0
   -8.6099   -9.4183    0.0000 C   0  0
   -8.6164  -10.2365    0.0000 C   0  0
   -7.9049  -10.6493    0.0000 C   0  0
   -5.7859  -12.6980    0.0000 O   0  0
   -6.4896  -13.1065    0.0000 C   0  0
   -4.3646  -11.8789    0.0000 N   0  0
   -3.6601  -11.4692    0.0000 C   0  0
   -2.9536  -11.8771    0.0000 N   0  0
   -2.2487  -11.4681    0.0000 C   0  0
   -2.2479  -10.6500    0.0000 C   0  0
   -2.9626  -10.2427    0.0000 C   0  0
   -3.6622  -10.6541    0.0000 N   0  0
   -2.9667   -9.4255    0.0000 O   0  0
   -2.2608   -9.0133    0.0000 C   0  0
   -1.5560   -9.4186    0.0000 C   0  0
   -0.8496   -9.0071    0.0000 C   0  0
   -0.8541   -8.1890    0.0000 C   0  0
   -1.5674   -7.7843    0.0000 C   0  0
   -2.2684   -8.1981    0.0000 C   0  0
   -1.5429  -10.2394    0.0000 Cl  0  0
   -0.1477   -7.7759    0.0000 C   0  0
    0.5691   -8.1800    0.0000 O   0  0
   -9.3152   -9.0072    0.0000 O   0  0
    0.5743   -8.9971    0.0000 C   0  0
   -0.0846   -9.4847    0.0000 N   0  0
    0.1770  -10.2603    0.0000 O   0  0
    0.9942  -10.2550    0.0000 N   0  3
    1.2416   -9.4762    0.0000 C   0  0
    1.4788  -10.9130    0.0000 O   0  5
    2.6279   -9.7620    0.0000 C   0  0
    2.4613  -10.5620    0.0000 C   0  0
    3.0711  -11.1048    0.0000 C   0  0
    3.8478  -10.8477    0.0000 C   0  0
    4.0110  -10.0427    0.0000 C   0  0
    3.3999   -9.5033    0.0000 C   0  0
  2  1  2  0
  3  2  2  0
  4  5  2  0
  5  6  1  0
  6  7  2  0
  7  8  1  0
  8  9  2  0
  9  4  1  0
 10 11  1  0
 10 15  1  0
 11 12  1  0
 12 13  1  0
 13 14  1  0
 14 15  1  0
  4 10  1  0
  6 16  1  0
 16 17  1  0
  7 18  1  0
 18 19  1  0
 19 20  2  0
 20 21  1  0
 21 22  2  0
 22 23  1  0
 23 24  2  0
 24 19  1  0
 23 25  1  0
 25 26  1  0
 26 27  2  0
 27 28  1  0
 28 29  2  0
 29 30  1  0
 30 31  2  0
 31 26  1  0
 22 32  1  0
 29 33  1  0
 33 34  1  0
 13 35  1  0
 34 36  1  0
 36 37  2  0
 37 38  1  0
 38 39  1  0
 39 40  2  0
 40 36  1  0
 39 41  1  0
 40  2  1  0
  2 42  1  0
 42 43  2  0
 43 44  1  0
 44 45  2  0
 45 46  1  0
 46 47  2  0
 47 42  1  0
M  CHG  2  39   1  41  -1
M  END
> <chembl_id>
CHEMBL2408826

$$$$

  SciTegic02271217242D

 25 28  0  0  0  0            999 V2000
    9.7664   -9.8360    0.0000 N   0  0
   10.4828   -9.4227    0.0000 C   0  0
   10.4800   -8.5922    0.0000 N   0  0
    9.7646   -8.1830    0.0000 C   0  0
    9.0516   -9.4232    0.0000 C   0  0
    9.0528   -8.5942    0.0000 C   0  0
    8.2648   -8.3369    0.0000 N   0  0
    7.7766   -9.0068    0.0000 C   0  0
    8.2628   -9.6781    0.0000 C   0  0
    9.7628   -7.3580    0.0000 N   0  0
   10.4763   -6.9440    0.0000 C   0  0
   11.1886   -7.3579    0.0000 C   0  0
   11.9017   -6.9445    0.0000 C   0  0
   11.9003   -6.1186    0.0000 C   0  0
   11.1799   -5.7078    0.0000 C   0  0
   10.4698   -6.1236    0.0000 C   0  0
   12.6169   -7.3557    0.0000 Cl  0  0
   12.6133   -5.7036    0.0000 O   0  0
   13.3292   -6.1136    0.0000 C   0  0
   13.3293   -6.9386    0.0000 C   0  0
   14.0444   -7.3485    0.0000 C   0  0
   14.7584   -6.9334    0.0000 C   0  0
   14.7528   -6.1042    0.0000 C   0  0
   14.0371   -5.6980    0.0000 C   0  0
   14.0311   -4.8730    0.0000 Cl  0  0
 11 12  2  0
  5  1  1  0
 12 13  1  0
  2  3  1  0
 13 14  2  0
 14 15  1  0
  3  4  2  0
 15 16  2  0
 16 11  1  0
  6  7  1  0
 13 17  1  0
  7  8  1  0
 14 18  1  0
  8  9  2  0
 18 19  1  0
  9  5  1  0
 19 20  2  0
  4  6  1  0
 20 21  1  0
  4 10  1  0
 21 22  2  0
  5  6  2  0
 22 23  1  0
 10 11  1  0
 23 24  2  0
 24 19  1  0
  1  2  2  0
 24 25  1  0
M  END
> <chembl_id>
CHEMBL1922900

$$$$

  SciTegic01181116592D

 41 47  0  0  0  0            999 V2000
   -3.1310  -14.3434    0.0000 C   0  0  2  0  0  0
   -3.6825  -14.9557    0.0000 C   0  0
   -3.4306  -15.7375    0.0000 C   0  0
   -2.6242  -15.9134    0.0000 C   0  0  2  0  0  0
   -2.0700  -15.3010    0.0000 C   0  0
   -2.3222  -14.5127    0.0000 C   0  0
   -2.3724  -16.6991    0.0000 N   0  0
   -2.9253  -17.3079    0.0000 C   0  0
   -2.6764  -18.0907    0.0000 C   0  0
   -1.8707  -18.2696    0.0000 N   0  0
   -1.3142  -17.6593    0.0000 C   0  0
   -1.5633  -16.8701    0.0000 C   0  0
   -1.6218  -19.0562    0.0000 C   0  0
   -3.3870  -13.5591    0.0000 N   0  0
   -5.5973  -12.4833    0.0000 N   0  0
   -5.5984  -13.3065    0.0000 C   0  0
   -4.8794  -13.7194    0.0000 N   0  0
   -4.8812  -12.0705    0.0000 C   0  0
   -4.1700  -12.4797    0.0000 C   0  0
   -4.1693  -13.3065    0.0000 C   0  0
   -2.9012  -12.8960    0.0000 N   0  0
   -3.3849  -12.2259    0.0000 C   0  0
   -2.9743  -11.5110    0.0000 C   0  0
   -2.1484  -11.5129    0.0000 C   0  0
   -1.7376  -10.7984    0.0000 C   0  0
   -2.1517  -10.0838    0.0000 C   0  0
   -2.9810  -10.0883    0.0000 C   0  0
   -3.3881  -10.8035    0.0000 C   0  0
   -1.7417   -9.3679    0.0000 N   0  0
   -0.9167   -9.3650    0.0000 C   0  0
   -0.4299  -10.0254    0.0000 O   0  0
   -0.4347   -8.6906    0.0000 N   0  0
    0.3509   -8.9426    0.0000 C   0  0
    0.3516   -9.7649    0.0000 C   0  0
    1.0629  -10.1735    0.0000 C   0  0
    1.7739   -9.7611    0.0000 C   0  0
    1.7692   -8.9358    0.0000 C   0  0
    1.0573   -8.5308    0.0000 C   0  0
    1.0645  -10.9985    0.0000 Cl  0  0
   -4.8816  -11.2455    0.0000 N   0  0
   -3.3975   -9.3762    0.0000 F   0  0
 21 22  2  0
 22 19  1  0
  8  9  1  0
 22 23  1  0
  9 10  1  0
 23 24  2  0
 10 11  1  0
 24 25  1  0
 11 12  1  0
 25 26  2  0
  5  6  1  0
 26 27  1  0
 10 13  1  0
 27 28  2  0
 28 23  1  0
  1  2  1  0
 26 29  1  0
  1 14  1  1
 29 30  1  0
 30 31  1  0
  4  7  1  6
  7  8  1  0
 31 34  1  0
 33 32  1  0
 32 30  2  0
 15 16  2  0
 33 34  2  0
 16 17  1  0
 34 35  1  0
 17 20  2  0
 35 36  2  0
  1  6  1  0
 36 37  1  0
 19 18  2  0
 37 38  2  0
 38 33  1  0
 18 15  1  0
 35 39  1  0
 19 20  1  0
 18 40  1  0
  2  3  1  0
  3  4  1  0
  4  5  1  0
  7 12  1  0
 20 14  1  0
 14 21  1  0
 27 41  1  0
M  END
> <chembl_id>
CHEMBL1256432

$$$$

  SciTegic12131613492D

 28 32  0  0  0  0            999 V2000
    0.8955    2.0810    0.0000 C   0  0
    1.7138    1.2033    0.0000 C   0  0
    2.8908    1.4370    0.0000 C   0  0
   -1.0028    1.5132    0.0000 N   0  0
   -2.3155    0.7475    0.0000 C   0  0
   -2.3155   -0.7475    0.0000 N   0  0
   -1.0028   -1.5132    0.0000 C   0  0
    0.2917    0.7475    0.0000 C   0  0
    0.2917   -0.7475    0.0000 C   0  0
    1.7138   -1.2033    0.0000 C   0  0
    2.5889    0.0182    0.0000 O   0  0
   -3.6168    1.4950    0.0000 C   0  0
   -4.9669    0.8708    0.0000 C   0  0
   -5.9732    1.9832    0.0000 N   0  0
   -5.2262    3.2840    0.0000 N   0  0
   -3.7582    2.9755    0.0000 C   0  0
   -0.9971   -3.0138    0.0000 N   0  0
   -2.2935   -3.7700    0.0000 C   0  0
   -4.6304   -4.2656    0.0000 N   0  0
   -3.6203   -3.1531    0.0000 N   0  0
   -3.8857   -5.5600    0.0000 C   0  0
   -2.4241   -5.2456    0.0000 C   0  0
   -1.4032   -6.3500    0.0000 C   0  0
   -1.8757   -7.7944    0.0000 C   0  0
   -3.3373   -8.1089    0.0000 C   0  0
   -4.3620   -6.9866    0.0000 C   0  0
   -5.5359   -7.2354    0.0000 F   0  0
   -1.0725   -8.6860    0.0000 F   0  0
  2  1  1  0
  3  2  1  0
  8  4  1  0
  4  5  2  0
  5  6  1  0
  6  7  2  0
  7  9  1  0
  8  9  2  0
  9 10  1  0
 10 11  1  0
 11  2  1  0
  2  8  1  0
  5 12  1  0
 12 13  2  0
 13 14  1  0
 14 15  1  0
 15 16  2  0
 16 12  1  0
  7 17  1  0
 17 18  1  0
 18 22  1  0
 21 19  1  0
 19 20  1  0
 20 18  2  0
 21 22  2  0
 22 23  1  0
 23 24  2  0
 24 25  1  0
 25 26  2  0
 26 21  1  0
 26 27  1  0
 24 28  1  0
M  END
> <chembl_id>
CHEMBL3760072

$$$$

  SciTegic02271217242D

 28 31  0  0  0  0            999 V2000
    9.8539   -9.0777    0.0000 N   0  0
   10.5703   -8.6644    0.0000 C   0  0
   10.5675   -7.8338    0.0000 N   0  0
    9.8521   -7.4247    0.0000 C   0  0
    9.1391   -8.6648    0.0000 C   0  0
    9.1403   -7.8359    0.0000 C   0  0
    8.3523   -7.5786    0.0000 N   0  0
    7.8641   -8.2485    0.0000 C   0  0
    8.3503   -8.9197    0.0000 C   0  0
    9.8503   -6.5997    0.0000 N   0  0
   10.5638   -6.1856    0.0000 C   0  0
   11.2761   -6.5995    0.0000 C   0  0
   11.9892   -6.1861    0.0000 C   0  0
   11.9878   -5.3603    0.0000 C   0  0
   11.2674   -4.9495    0.0000 C   0  0
   10.5573   -5.3652    0.0000 C   0  0
   12.7044   -6.5974    0.0000 Cl  0  0
   12.7008   -4.9452    0.0000 O   0  0
    8.0986   -6.7935    0.0000 C   0  0
   13.4168   -5.3552    0.0000 C   0  0
   13.4168   -6.1803    0.0000 C   0  0
   14.1319   -6.5902    0.0000 C   0  0
   14.8459   -6.1751    0.0000 C   0  0
   14.8403   -5.3458    0.0000 C   0  0
   14.1246   -4.9397    0.0000 C   0  0
   15.5518   -4.9283    0.0000 Cl  0  0
    7.2919   -6.6208    0.0000 C   0  0
    7.0382   -5.8358    0.0000 O   0  0
  2  3  1  0
 13 14  2  0
 14 15  1  0
  3  4  2  0
 15 16  2  0
 16 11  1  0
  6  7  1  0
 13 17  1  0
  7  8  1  0
 14 18  1  0
  8  9  2  0
  7 19  1  0
  9  5  1  0
 18 20  1  0
  4  6  1  0
 20 21  2  0
  4 10  1  0
 21 22  1  0
  5  6  2  0
 22 23  2  0
 10 11  1  0
 23 24  1  0
  1  2  2  0
 24 25  2  0
 25 20  1  0
 11 12  2  0
 24 26  1  0
  5  1  1  0
 19 27  1  0
 12 13  1  0
 27 28  1  0
M  END
> <chembl_id>
CHEMBL1923006

$$$$

  SciTegic08011209522D

 22 24  0  0  0  0            999 V2000
   -2.8618   -0.8042    0.0000 C   0  0
   -2.8658   -1.6292    0.0000 C   0  0
   -3.5743   -0.3883    0.0000 O   0  0
   -2.1454   -0.3952    0.0000 N   0  0
    0.7045   -2.0590    0.0000 N   0  0
    1.4209   -1.6500    0.0000 C   0  0
    1.4249   -0.8250    0.0000 N   0  0
    0.7125   -0.4090    0.0000 C   0  0
   -0.0040   -0.8181    0.0000 C   0  0
   -0.7165   -0.4021    0.0000 C   0  0
   -1.4329   -0.8112    0.0000 C   0  0
   -1.4369   -1.6361    0.0000 C   0  0
   -0.7245   -2.0521    0.0000 C   0  0
   -0.0080   -1.6431    0.0000 C   0  0
    0.7165    0.4160    0.0000 N   0  0
    1.4329    0.8250    0.0000 C   0  0
    2.1454    0.4090    0.0000 C   0  0
    2.8618    0.8181    0.0000 C   0  0
    2.8658    1.6431    0.0000 C   0  0
    2.1534    2.0590    0.0000 C   0  0
    1.4369    1.6500    0.0000 C   0  0
    3.5743    0.4021    0.0000 Br  0  0
  1  2  1  0
  1  3  2  0
  1  4  1  0
  5  6  1  0
  6  7  2  0
  7  8  1  0
  8  9  2  0
  9 10  1  0
 10 11  2  0
 11 12  1  0
 12 13  2  0
 13 14  1  0
  5 14  2  0
  9 14  1  0
 15 16  1  0
 16 17  1  0
 17 18  2  0
 18 19  1  0
 19 20  2  0
 20 21  1  0
 16 21  2  0
 18 22  1  0
  8 15  1  0
  4 11  1  0
M  END
> <chembl_id>
CHEMBL2031296

$$$$

  SciTegic09261414462D

 32 35  0  0  0  0            999 V2000
    7.9034  -22.5085    0.0000 N   0  0
    8.6130  -22.0990    0.0000 C   0  0
    8.6102  -21.2764    0.0000 N   0  0
    7.9016  -20.8711    0.0000 C   0  0
    7.1953  -22.0995    0.0000 C   0  0
    7.1965  -21.2830    0.0000 C   0  0
    6.4204  -21.0294    0.0000 C   0  0
    5.9394  -21.6894    0.0000 C   0  0
    6.4184  -22.3506    0.0000 S   0  0
    7.8978  -20.0539    0.0000 N   0  0
    8.6036  -19.6421    0.0000 C   0  0
    9.3110  -20.0522    0.0000 C   0  0
   10.0164  -19.6410    0.0000 C   0  0
   10.0131  -18.8230    0.0000 C   0  0
    9.2985  -18.4178    0.0000 C   0  0
    8.5961  -18.8313    0.0000 C   0  0
    5.1222  -21.6882    0.0000 N   0  0
    4.7146  -20.9799    0.0000 C   0  0
    3.8974  -20.9787    0.0000 C   0  0
    5.1242  -20.2728    0.0000 O   0  0
   10.7183  -18.4102    0.0000 F   0  0
   10.7258  -20.0467    0.0000 Cl  0  0
    3.4898  -20.2704    0.0000 C   0  0
    2.6727  -20.2692    0.0000 C   0  0
    2.2651  -19.5609    0.0000 N   0  0
    2.6751  -18.8554    0.0000 C   0  0
    2.2710  -18.1492    0.0000 C   0  0
    1.4535  -18.1438    0.0000 C   0  0
    1.0417  -18.8507    0.0000 C   0  0
    1.4474  -19.5631    0.0000 C   0  0
    0.7429  -17.7347    0.0000 F   0  0
    1.4487  -17.3261    0.0000 F   0  0
  5  1  1  0
  1  2  2  0
  2  3  1  0
  3  4  2  0
  4  6  1  0
  5  6  2  0
  6  7  1  0
  7  8  2  0
  8  9  1  0
  9  5  1  0
  4 10  1  0
 10 11  1  0
 11 12  2  0
 12 13  1  0
 13 14  2  0
 14 15  1  0
 15 16  2  0
 16 11  1  0
  8 17  1  0
 17 18  1  0
 18 19  1  0
 18 20  2  0
 14 21  1  0
 13 22  1  0
 19 23  2  0
 23 24  1  0
 24 25  1  0
 25 26  1  0
 25 30  1  0
 26 27  1  0
 27 28  1  0
 28 29  1  0
 29 30  1  0
 28 31  1  0
 28 32  1  0
M  END
> <chembl_id>
CHEMBL3233787

$$$$

  SciTegic01181116592D

 27 30  0  0  0  0            999 V2000
   19.0439  -28.2918    0.0000 N   0  0
   19.7609  -27.8780    0.0000 C   0  0
   19.7581  -27.0469    0.0000 N   0  0
   19.0421  -26.6374    0.0000 C   0  0
   19.0396  -25.8118    0.0000 N   0  0
   18.3286  -27.8785    0.0000 C   0  0
   18.3252  -27.0536    0.0000 C   0  0
   17.5450  -28.1365    0.0000 S   0  0
   17.0574  -27.4712    0.0000 C   0  0
   17.5394  -26.8035    0.0000 C   0  0
   17.2040  -26.0564    0.0000 C   0  0
   16.3856  -25.9706    0.0000 C   0  0
   15.9037  -26.6378    0.0000 N   0  0
   16.2399  -27.3917    0.0000 C   0  0
   19.7535  -25.3968    0.0000 C   0  0  1  0  0  0
   20.4698  -25.8075    0.0000 C   0  0
   19.7510  -24.5711    0.0000 C   0  0
   20.4667  -24.1607    0.0000 C   0  0
   20.4646  -23.3358    0.0000 C   0  0
   19.7477  -22.9243    0.0000 C   0  0
   19.0316  -23.3437    0.0000 C   0  0
   19.0372  -24.1672    0.0000 C   0  0
   20.4722  -26.6331    0.0000 O   0  0
   15.0744  -26.6335    0.0000 C   0  0
   14.6579  -27.3464    0.0000 O   0  0
   14.6653  -25.9164    0.0000 C   0  0
   15.0817  -25.2035    0.0000 C   0  0
 10 11  1  0
 11 12  1  0
 12 13  1  0
 13 14  1  0
  2  3  1  0
  5 15  1  0
 15 16  1  0
  7 10  1  0
 15 17  1  6
  9  8  1  0
 17 18  2  0
  8  6  1  0
 18 19  1  0
  9 10  2  0
 19 20  2  0
  3  4  2  0
 20 21  1  0
  4  7  1  0
 21 22  2  0
 22 17  1  0
  1  2  2  0
 16 23  1  0
  4  5  1  0
 13 24  1  0
  6  7  2  0
 24 25  2  0
  6  1  1  0
 24 26  1  0
  9 14  1  0
 26 27  2  0
M  END
> <chembl_id>
CHEMBL1272168

$$$$

  SciTegic04091414152D

 42 47  0  0  0  0            999 V2000
    3.8527  -10.2498    0.0000 N   0  0
    3.8515  -11.0772    0.0000 C   0  0
    4.5664  -11.4900    0.0000 N   0  0
    4.5646   -9.8371    0.0000 C   0  0
    5.2799  -10.2462    0.0000 C   0  0
    5.2807  -11.0731    0.0000 C   0  0
    5.9960  -11.4840    0.0000 N   0  0
    6.7110  -11.0693    0.0000 C   0  0
    6.7062  -10.2393    0.0000 N   0  0
    5.9903   -9.8321    0.0000 C   0  0
    3.1368  -11.4891    0.0000 N   0  0
    7.4270  -11.4789    0.0000 O   0  0
    7.4181   -9.8225    0.0000 C   0  0
    3.1360  -12.3141    0.0000 C   0  0
    2.4212  -12.7245    0.0000 C   0  0
    2.4202  -13.5487    0.0000 C   0  0
    3.1348  -13.9626    0.0000 C   0  0
    3.8520  -13.5463    0.0000 C   0  0
    3.8495  -12.7234    0.0000 C   0  0
    5.9977  -12.3090    0.0000 C   0  0  1  0  0  0
    5.3335  -12.7947    0.0000 C   0  0
    5.5901  -13.5788    0.0000 C   0  0
    6.4152  -13.5771    0.0000 N   0  0
    6.6683  -12.7919    0.0000 C   0  0
    6.8224  -14.2946    0.0000 C   0  0
    6.4050  -15.0063    0.0000 C   0  0
    7.6474  -14.3004    0.0000 O   0  0
    6.8125  -15.7236    0.0000 C   0  0
    8.1325  -10.2333    0.0000 C   0  0
    8.8423   -9.8200    0.0000 C   0  0
    8.8416   -8.9946    0.0000 C   0  0
    8.1247   -8.5844    0.0000 C   0  0
    7.4086   -8.9994    0.0000 C   0  0
    3.1353  -14.7876    0.0000 C   0  0
    2.4211  -15.2005    0.0000 C   0  0
    2.4215  -16.0255    0.0000 N   0  0
    1.7056  -16.4361    0.0000 C   0  0
    1.7041  -17.2575    0.0000 C   0  0
    2.4170  -17.6735    0.0000 N   0  0
    3.1330  -17.2618    0.0000 C   0  0
    3.1363  -16.4342    0.0000 C   0  0
    2.4143  -18.4985    0.0000 C   0  0
  1  2  2  0
  2  3  1  0
  3  6  2  0
  5  4  2  0
  4  1  1  0
  5  6  1  0
  6  7  1  0
  7  8  1  0
  8  9  1  0
  9 10  1  0
 10  5  1  0
  2 11  1  0
  8 12  2  0
  9 13  1  0
 11 14  1  0
 14 15  2  0
 15 16  1  0
 16 17  2  0
 17 18  1  0
 18 19  2  0
 19 14  1  0
 20  7  1  6
 20 21  1  0
 21 22  1  0
 22 23  1  0
 23 24  1  0
 24 20  1  0
 23 25  1  0
 25 26  1  0
 25 27  2  0
 26 28  2  0
 13 29  2  0
 13 33  1  0
 29 30  1  0
 30 31  2  0
 31 32  1  0
 32 33  2  0
 17 34  1  0
 34 35  1  0
 35 36  1  0
 36 37  1  0
 36 41  1  0
 37 38  1  0
 38 39  1  0
 39 40  1  0
 40 41  1  0
 39 42  1  0
M  END
> <chembl_id>
CHEMBL3087194

$$$$

  SciTegic01181116592D

 41 47  0  0  0  0            999 V2000
   19.7357  -14.9101    0.0000 C   0  0  2  0  0  0
   19.1842  -15.5224    0.0000 C   0  0
   19.4360  -16.3042    0.0000 C   0  0
   20.2424  -16.4801    0.0000 C   0  0  2  0  0  0
   20.7967  -15.8677    0.0000 C   0  0
   20.5445  -15.0794    0.0000 C   0  0
   20.4943  -17.2657    0.0000 N   0  0
   19.9414  -17.8746    0.0000 C   0  0
   20.1902  -18.6574    0.0000 C   0  0
   20.9960  -18.8363    0.0000 N   0  0
   21.5525  -18.2260    0.0000 C   0  0
   21.3033  -17.4368    0.0000 C   0  0
   21.2448  -19.6229    0.0000 C   0  0
   19.4797  -14.1258    0.0000 N   0  0
   17.2694  -13.0500    0.0000 N   0  0
   17.2682  -13.8732    0.0000 C   0  0
   17.9872  -14.2860    0.0000 N   0  0
   17.9854  -12.6372    0.0000 C   0  0
   18.6966  -13.0463    0.0000 C   0  0
   18.6974  -13.8732    0.0000 C   0  0
   19.9655  -13.4627    0.0000 N   0  0
   19.4817  -12.7926    0.0000 C   0  0
   19.8924  -12.0777    0.0000 C   0  0
   20.7183  -12.0796    0.0000 C   0  0
   21.1291  -11.3651    0.0000 C   0  0
   20.7150  -10.6505    0.0000 C   0  0
   19.8857  -10.6550    0.0000 C   0  0
   19.4786  -11.3701    0.0000 C   0  0
   21.1249   -9.9346    0.0000 N   0  0
   21.9499   -9.9317    0.0000 C   0  0
   22.4367  -10.5921    0.0000 O   0  0
   22.4320   -9.2573    0.0000 N   0  0
   23.2175   -9.5093    0.0000 C   0  0
   23.2183  -10.3315    0.0000 C   0  0
   23.9295  -10.7402    0.0000 C   0  0
   24.6406  -10.3278    0.0000 C   0  0
   24.6359   -9.5025    0.0000 C   0  0
   23.9240   -9.0975    0.0000 C   0  0
   23.9312  -11.5652    0.0000 Cl  0  0
   17.9850  -11.8122    0.0000 N   0  0
   21.1306  -12.7942    0.0000 Cl  0  0
 21 22  2  0
 22 19  1  0
  8  9  1  0
 22 23  1  0
  9 10  1  0
 23 24  2  0
 10 11  1  0
 24 25  1  0
 11 12  1  0
 25 26  2  0
  5  6  1  0
 26 27  1  0
 10 13  1  0
 27 28  2  0
 28 23  1  0
  1  2  1  0
 26 29  1  0
  1 14  1  1
 29 30  1  0
 30 31  1  0
  4  7  1  6
  7  8  1  0
 31 34  1  0
 33 32  1  0
 32 30  2  0
 15 16  2  0
 33 34  2  0
 16 17  1  0
 34 35  1  0
 17 20  2  0
 35 36  2  0
  1  6  1  0
 36 37  1  0
 19 18  2  0
 37 38  2  0
 38 33  1  0
 18 15  1  0
 35 39  1  0
 19 20  1  0
 18 40  1  0
  2  3  1  0
  3  4  1  0
  4  5  1  0
  7 12  1  0
 20 14  1  0
 14 21  1  0
 24 41  1  0
M  END
> <chembl_id>
CHEMBL1256435

$$$$

  SciTegic08011209522D

 41 45  0  0  0  0            999 V2000
    6.0527   -5.4250    0.0000 N   0  0
    6.0516   -6.2523    0.0000 C   0  0
    6.7664   -6.6652    0.0000 N   0  0
    6.7646   -5.0122    0.0000 C   0  0
    7.4800   -5.4213    0.0000 C   0  0
    7.4834   -6.2544    0.0000 C   0  0
    8.2026   -6.6657    0.0000 N   0  0
    8.9230   -6.2485    0.0000 C   0  0
    8.9195   -5.4154    0.0000 N   0  0
    8.1957   -4.9995    0.0000 C   0  0
    8.2066   -7.4873    0.0000 C   0  0
    7.4916   -7.9011    0.0000 C   0  0
    7.4935   -8.7253    0.0000 C   0  0
    8.2096   -9.1367    0.0000 C   0  0
    8.9253   -8.7178    0.0000 C   0  0
    8.9199   -7.8950    0.0000 C   0  0
    5.3368   -6.6643    0.0000 N   0  0
    5.3361   -7.4893    0.0000 C   0  0
    4.6212   -7.8996    0.0000 C   0  0
    4.6202   -8.7239    0.0000 C   0  0
    5.3349   -9.1378    0.0000 C   0  0
    6.0521   -8.7214    0.0000 C   0  0
    6.0495   -7.8985    0.0000 C   0  0
    9.6386   -6.6591    0.0000 O   0  0
    9.6423   -9.1259    0.0000 N   0  0
    9.6475   -9.9508    0.0000 C   0  0
   10.3645  -10.3589    0.0000 C   0  0
    8.9356  -10.3678    0.0000 O   0  0
   10.3697  -11.1839    0.0000 C   0  0
    5.3353   -9.9628    0.0000 N   0  0
    9.6327   -5.0007    0.0000 C   0  0
    4.6184  -10.3724    0.0000 C   0  0
    4.6169  -11.1938    0.0000 C   0  0
    5.3298  -11.6097    0.0000 C   0  0
    6.0458  -11.1981    0.0000 C   0  0
    6.0490  -10.3705    0.0000 C   0  0
    3.9075   -7.4858    0.0000 O   0  0
    3.9091   -6.6608    0.0000 C   0  0
    5.3271  -12.4347    0.0000 N   0  0
    4.6113  -12.8449    0.0000 C   0  0
    6.0402  -12.8495    0.0000 C   0  0
  7  8  1  0
 19 20  1  0
  8  9  1  0
 20 21  2  0
  9 10  1  0
 21 22  1  0
  5  6  1  0
 22 23  2  0
 23 18  1  0
  8 24  2  0
 11 12  2  0
 15 25  1  0
  2  3  1  0
 25 26  1  0
 12 13  1  0
 26 27  1  0
  3  6  2  0
 26 28  2  0
 13 14  2  0
 27 29  2  0
  1  2  2  0
 21 30  1  0
 14 15  1  0
  9 31  1  0
 30 32  1  0
  5  4  2  0
 15 16  2  0
 16 11  1  0
  7 11  1  0
  4  1  1  0
 30 36  1  0
 32 33  1  0
 33 34  1  0
 34 35  1  0
 35 36  1  0
  2 17  1  0
 19 37  1  0
  5 10  1  0
 37 38  1  0
 17 18  1  0
 34 39  1  0
  6  7  1  0
 39 40  1  0
 18 19  2  0
 39 41  1  0
M  END
> <chembl_id>
CHEMBL2029425

$$$$

  SciTegic04191617032D

 31 34  0  0  0  0            999 V2000
    1.2990   -0.7500    0.0000 C   0  0
    1.2990    0.7500    0.0000 C   0  0
    0.0000    1.5000    0.0000 N   0  0
   -1.2990    0.7500    0.0000 C   0  0
   -1.2990   -0.7500    0.0000 N   0  0
    0.0000   -1.5000    0.0000 C   0  0
    0.0031   -3.0008    0.0000 N   0  0
    1.3039   -3.7494    0.0000 C   0  0
    1.4469   -5.2297    0.0000 C   0  0
    2.9152   -5.5365    0.0000 C   0  0
    3.6607   -4.2349    0.0000 N   0  0
    2.6532   -3.1236    0.0000 N   0  0
   -2.6003    1.4977    0.0000 O   0  0
   -3.8990    0.7455    0.0000 C   0  0
   -5.2007    1.4909    0.0000 C   0  0
   -6.4972    0.7364    0.0000 C   0  0
   -6.4920   -0.7636    0.0000 C   0  0
   -5.1903   -1.5091    0.0000 C   0  0
   -3.8939   -0.7546    0.0000 C   0  0
    2.5987    1.5004    0.0000 N   0  0
    3.8991    0.7525    0.0000 C   0  0
    5.1969    1.5046    0.0000 C   0  0
    5.1945    3.0046    0.0000 N   0  0
    3.8943    3.7525    0.0000 C   0  0
    2.5964    3.0004    0.0000 C   0  0
    6.2328    3.6062    0.0000 C   0  0
   -5.1821   -3.0099    0.0000 N   0  0
   -3.8787   -3.7540    0.0000 C   0  0
   -3.8704   -5.2548    0.0000 C   0  0
   -2.8426   -3.1486    0.0000 O   0  0
   -2.8282   -5.8497    0.0000 C   0  0
  1  2  2  0
  2  3  1  0
  3  4  2  0
  4  5  1  0
  5  6  2  0
  6  1  1  0
  6  7  1  0
  7  8  1  0
  8  9  1  0
  9 10  2  0
 10 11  1  0
 11 12  1  0
 12  8  2  0
  4 13  1  0
 13 14  1  0
 14 15  2  0
 15 16  1  0
 16 17  2  0
 17 18  1  0
 18 19  2  0
 19 14  1  0
  2 20  1  0
 20 21  1  0
 20 25  1  0
 21 22  1  0
 22 23  1  0
 23 24  1  0
 24 25  1  0
 23 26  1  0
 18 27  1  0
 27 28  1  0
 28 29  1  0
 28 30  2  0
 29 31  2  0
M  END
> <chembl_id>
CHEMBL3604933

$$$$

  SciTegic12201615542D

 30 34  0  0  0  0            999 V2000
   -1.0028   -1.5132    0.0000 C   0  0
    0.2917   -0.7475    0.0000 C   0  0
    0.2917    0.7475    0.0000 C   0  0
   -1.0028    1.5132    0.0000 C   0  0
   -2.3155    0.7475    0.0000 C   0  0
   -2.3155   -0.7475    0.0000 C   0  0
    2.5889    0.0182    0.0000 C   0  0
    1.7138   -1.2033    0.0000 N   0  0
    1.7138    1.2033    0.0000 N   0  0
    4.0896    0.0290    0.0000 C   0  0
    4.9234    1.2700    0.0000 C   0  0
    4.7453   -1.3220    0.0000 N   0  0
    6.4199    1.1671    0.0000 N   0  0
    7.0791   -0.1803    0.0000 C   0  0
    6.2418   -1.4248    0.0000 C   0  0
    7.2286   -5.1568    0.0000 N   0  0
    8.5770   -4.4998    0.0000 N   0  0
    8.3688   -3.0143    0.0000 C   0  0
    6.9013   -2.7729    0.0000 C   0  0
    6.1870   -4.0774    0.0000 C   0  0
    6.2216   -9.5371    0.0000 N   0  0
    7.6659   -9.1322    0.0000 C   0  0
    8.0374   -7.6789    0.0000 C   0  0
    6.9674   -6.6347    0.0000 C   0  0
    5.5202   -7.0355    0.0000 C   0  0
    5.1488   -8.4888    0.0000 C   0  0
    5.9245  -10.6998    0.0000 C   0  0
    4.3957    2.3477    0.0000 N   0  0
    2.1812    2.6271    0.0000 C   0  0
    3.3556    2.8737    0.0000 C   0  0
  1  2  1  0
  2  3  2  0
  3  4  1  0
  4  5  2  0
  5  6  1  0
  1  6  2  0
  7  8  2  0
  7  9  1  0
  2  8  1  0
  3  9  1  0
 10 11  1  0
 10 12  2  0
 11 13  2  0
 13 14  1  0
 14 15  2  0
 12 15  1  0
 16 17  1  0
 17 18  2  0
 18 19  1  0
 19 20  2  0
 16 20  1  0
 21 22  1  0
 22 23  1  0
 23 24  1  0
 24 25  1  0
 25 26  1  0
 21 26  1  0
 21 27  1  0
 16 24  1  0
 15 19  1  0
 11 28  1  0
  7 10  1  0
  9 29  1  0
 29 30  1  0
M  END
> <chembl_id>
CHEMBL3815045

$$$$
